<additional>
 <laneAreaDetector id="yuanlinlu_west_entry0" lane="E0_0" pos="0" length="361.73" freq="300" file="output/data_e2.xml"/>
 <laneAreaDetector id="yuanlinlu_west_entry1" lane="E0_1" pos="0" length="361.73" freq="300" file="output/data_e2.xml"/>
 <laneAreaDetector id="yuanlinlu_west_entry2" lane="E0_2" pos="0" length="361.73" freq="300" file="output/data_e2.xml"/>
 <laneAreaDetector id="yuanlinlu_west_entry3" lane="E0_3" pos="0" length="361.73" freq="300" file="output/data_e2.xml"/>

 <laneAreaDetector id="yuanlinlu_west_exit0" lane="-E0_0" pos="0" length="361.73" freq="300" file="output/data_e2.xml"/>
 <laneAreaDetector id="yuanlinlu_west_exit1" lane="-E0_1" pos="0" length="361.73" freq="300" file="output/data_e2.xml"/>
 <laneAreaDetector id="yuanlinlu_west_exit2" lane="-E0_2" pos="0" length="361.73" freq="300" file="output/data_e2.xml"/>
 <laneAreaDetector id="yuanlinlu_west_exit3" lane="-E0_3" pos="0" length="361.73" freq="300" file="output/data_e2.xml"/>

 <laneAreaDetector id="yuanlinlu_east_entry0" lane="-E8_0" pos="0" length="325.62" freq="300" file="output/data_e2.xml"/>
 <laneAreaDetector id="yuanlinlu_east_entry1" lane="-E8_1" pos="0" length="325.62" freq="300" file="output/data_e2.xml"/>
 <laneAreaDetector id="yuanlinlu_east_entry2" lane="-E8_2" pos="0" length="325.62" freq="300" file="output/data_e2.xml"/>
 <laneAreaDetector id="yuanlinlu_east_entry3" lane="-E8_3" pos="0" length="325.62" freq="300" file="output/data_e2.xml"/>

 <laneAreaDetector id="yuanlinlu_east_exit0" lane="E8_0" pos="0" length="325.62" freq="300" file="output/data_e2.xml"/>
 <laneAreaDetector id="yuanlinlu_east_exit1" lane="E8_1" pos="0" length="325.62" freq="300" file="output/data_e2.xml"/>
 <laneAreaDetector id="yuanlinlu_east_exit2" lane="E8_2" pos="0" length="325.62" freq="300" file="output/data_e2.xml"/>
 <laneAreaDetector id="yuanlinlu_east_exit3" lane="E8_3" pos="0" length="325.62" freq="300" file="output/data_e2.xml"/>

 <laneAreaDetector id="yuanlinlu_west_mid_entry0" lane="E2_0" pos="0" length="364.62" freq="300" file="output/data_e2.xml"/>
 <laneAreaDetector id="yuanlinlu_west_mid_entry1" lane="E2_1" pos="0" length="364.62" freq="300" file="output/data_e2.xml"/>
 <laneAreaDetector id="yuanlinlu_west_mid_entry2" lane="E2_2" pos="0" length="364.62" freq="300" file="output/data_e2.xml"/>
 <laneAreaDetector id="yuanlinlu_west_mid_entry3" lane="E2_3" pos="0" length="364.62" freq="300" file="output/data_e2.xml"/>

 <laneAreaDetector id="yuanlinlu_west_mid_exit0" lane="-E2_0" pos="0" length="364.62" freq="300" file="output/data_e2.xml"/>
 <laneAreaDetector id="yuanlinlu_west_mid_exit1" lane="-E2_1" pos="0" length="364.62" freq="300" file="output/data_e2.xml"/>
 <laneAreaDetector id="yuanlinlu_west_mid_exit2" lane="-E2_2" pos="0" length="364.62" freq="300" file="output/data_e2.xml"/>
 <laneAreaDetector id="yuanlinlu_west_mid_exit3" lane="-E2_3" pos="0" length="364.62" freq="300" file="output/data_e2.xml"/>

 <laneAreaDetector id="yuanlinlu_east_mid_entry0" lane="-E5_0" pos="0" length="364.71" freq="300" file="output/data_e2.xml"/>
 <laneAreaDetector id="yuanlinlu_east_mid_entry1" lane="-E5_1" pos="0" length="364.71" freq="300" file="output/data_e2.xml"/>
 <laneAreaDetector id="yuanlinlu_east_mid_entry2" lane="-E5_2" pos="0" length="364.71" freq="300" file="output/data_e2.xml"/>
 <laneAreaDetector id="yuanlinlu_east_mid_entry3" lane="-E5_3" pos="0" length="364.71" freq="300" file="output/data_e2.xml"/>

 <laneAreaDetector id="yuanlinlu_east_mid_exit0" lane="E5_0" pos="0" length="364.71" freq="300" file="output/data_e2.xml"/>
 <laneAreaDetector id="yuanlinlu_east_mid_exit1" lane="E5_1" pos="0" length="364.71" freq="300" file="output/data_e2.xml"/>
 <laneAreaDetector id="yuanlinlu_east_mid_exit2" lane="E5_2" pos="0" length="364.71" freq="300" file="output/data_e2.xml"/>
 <laneAreaDetector id="yuanlinlu_east_mid_exit3" lane="E5_3" pos="0" length="364.71" freq="300" file="output/data_e2.xml"/>

 <laneAreaDetector id="xingminlu_north_entry0" lane="-E3_0" pos="0" length="180.69" freq="300" file="output/data_e2.xml"/>
 <laneAreaDetector id="xingminlu_north_entry1" lane="-E3_1" pos="0" length="180.69" freq="300" file="output/data_e2.xml"/>
 <laneAreaDetector id="xingminlu_north_entry2" lane="-E3_2" pos="0" length="180.69" freq="300" file="output/data_e2.xml"/>

 <laneAreaDetector id="xingminlu_north_exit0" lane="E3_0" pos="0" length="180.69" freq="300" file="output/data_e2.xml"/>
 <laneAreaDetector id="xingminlu_north_exit1" lane="E3_1" pos="0" length="180.69" freq="300" file="output/data_e2.xml"/>
 <laneAreaDetector id="xingminlu_north_exit2" lane="E3_2" pos="0" length="180.69" freq="300" file="output/data_e2.xml"/>

 <laneAreaDetector id="xingminlu_south_entry0" lane="-E1_0" pos="0" length="183.05" freq="300" file="output/data_e2.xml"/>
 <laneAreaDetector id="xingminlu_south_entry1" lane="-E1_1" pos="0" length="183.05" freq="300" file="output/data_e2.xml"/>
 <laneAreaDetector id="xingminlu_south_entry2" lane="-E1_2" pos="0" length="183.05" freq="300" file="output/data_e2.xml"/>

 <laneAreaDetector id="xingminlu_south_exit0" lane="E1_0" pos="0" length="183.05" freq="300" file="output/data_e2.xml"/>
 <laneAreaDetector id="xingminlu_south_exit1" lane="E1_1" pos="0" length="183.05" freq="300" file="output/data_e2.xml"/>
 <laneAreaDetector id="xingminlu_south_exit2" lane="E1_2" pos="0" length="183.05" freq="300" file="output/data_e2.xml"/>

 <laneAreaDetector id="fukanglu_north_entry0" lane="-E6_0" pos="0" length="183.08" freq="300" file="output/data_e2.xml"/>
 <laneAreaDetector id="fukanglu_north_entry1" lane="-E6_1" pos="0" length="183.08" freq="300" file="output/data_e2.xml"/>
 <laneAreaDetector id="fukanglu_north_entry2" lane="-E6_2" pos="0" length="183.08" freq="300" file="output/data_e2.xml"/>
 <laneAreaDetector id="fukanglu_north_entry3" lane="-E6_3" pos="0" length="183.08" freq="300" file="output/data_e2.xml"/>

 <laneAreaDetector id="fukanglu_north_exit0" lane="E6_0" pos="0" length="183.08" freq="300" file="output/data_e2.xml"/>
 <laneAreaDetector id="fukanglu_north_exit1" lane="E6_1" pos="0" length="183.08" freq="300" file="output/data_e2.xml"/>
 <laneAreaDetector id="fukanglu_north_exit2" lane="E6_2" pos="0" length="183.08" freq="300" file="output/data_e2.xml"/>
 <laneAreaDetector id="fukanglu_north_exit3" lane="E6_3" pos="0" length="183.08" freq="300" file="output/data_e2.xml"/>

 <laneAreaDetector id="fukanglu_south_entry0" lane="-E4_0" pos="0" length="180.26" freq="300" file="output/data_e2.xml"/>
 <laneAreaDetector id="fukanglu_south_entry1" lane="-E4_1" pos="0" length="180.26" freq="300" file="output/data_e2.xml"/>
 <laneAreaDetector id="fukanglu_south_entry2" lane="-E4_2" pos="0" length="180.26" freq="300" file="output/data_e2.xml"/>
 <laneAreaDetector id="fukanglu_south_entry3" lane="-E4_3" pos="0" length="180.26" freq="300" file="output/data_e2.xml"/>

 <laneAreaDetector id="fukanglu_south_exit0" lane="E4_0" pos="0" length="180.26" freq="300" file="output/data_e2.xml"/>
 <laneAreaDetector id="fukanglu_south_exit1" lane="E4_1" pos="0" length="180.26" freq="300" file="output/data_e2.xml"/>
 <laneAreaDetector id="fukanglu_south_exit2" lane="E4_2" pos="0" length="180.26" freq="300" file="output/data_e2.xml"/>
 <laneAreaDetector id="fukanglu_south_exit3" lane="E4_3" pos="0" length="180.26" freq="300" file="output/data_e2.xml"/>

 <laneAreaDetector id="feitianlu_north_entry0" lane="-E9_0" pos="0" length="185.82" freq="300" file="output/data_e2.xml"/>
 <laneAreaDetector id="feitianlu_north_entry1" lane="-E9_1" pos="0" length="185.82" freq="300" file="output/data_e2.xml"/>
 <laneAreaDetector id="feitianlu_north_entry2" lane="-E9_2" pos="0" length="185.82" freq="300" file="output/data_e2.xml"/>

 <laneAreaDetector id="feitianlu_north_exit0" lane="E9_0" pos="0" length="185.82" freq="300" file="output/data_e2.xml"/>
 <laneAreaDetector id="feitianlu_north_exit1" lane="E9_1" pos="0" length="185.82" freq="300" file="output/data_e2.xml"/>
 <laneAreaDetector id="feitianlu_north_exit2" lane="E9_2" pos="0" length="185.82" freq="300" file="output/data_e2.xml"/>

 <laneAreaDetector id="feitianlu_south_entry0" lane="-E7_0" pos="0" length="183.52" freq="300" file="output/data_e2.xml"/>
 <laneAreaDetector id="feitianlu_south_entry1" lane="-E7_1" pos="0" length="183.52" freq="300" file="output/data_e2.xml"/>
 <laneAreaDetector id="feitianlu_south_entry2" lane="-E7_2" pos="0" length="183.52" freq="300" file="output/data_e2.xml"/>

 <laneAreaDetector id="feitianlu_south_exit0" lane="E7_0" pos="0" length="183.52" freq="300" file="output/data_e2.xml"/>
 <laneAreaDetector id="feitianlu_south_exit1" lane="E7_1" pos="0" length="183.52" freq="300" file="output/data_e2.xml"/>
 <laneAreaDetector id="feitianlu_south_exit2" lane="E7_2" pos="0" length="183.52" freq="300" file="output/data_e2.xml"/>

<!--second-->
 <laneAreaDetector id="yuanlinlu_second_west_entry0" lane="E16_0" pos="0" length="382.91" freq="300" file="output/data_e2.xml"/>
 <laneAreaDetector id="yuanlinlu_second_west_entry1" lane="E16_1" pos="0" length="382.91" freq="300" file="output/data_e2.xml"/>
 <laneAreaDetector id="yuanlinlu_second_west_entry2" lane="E16_2" pos="0" length="382.91" freq="300" file="output/data_e2.xml"/>
 <laneAreaDetector id="yuanlinlu_second_west_entry3" lane="E16_3" pos="0" length="382.91" freq="300" file="output/data_e2.xml"/>

 <laneAreaDetector id="yuanlinlu_second_west_exit0" lane="-E16_0" pos="0" length="382.91" freq="300" file="output/data_e2.xml"/>
 <laneAreaDetector id="yuanlinlu_second_west_exit1" lane="-E16_1" pos="0" length="382.91" freq="300" file="output/data_e2.xml"/>
 <laneAreaDetector id="yuanlinlu_second_west_exit2" lane="-E16_2" pos="0" length="382.91" freq="300" file="output/data_e2.xml"/>
 <laneAreaDetector id="yuanlinlu_second_west_exit3" lane="-E16_3" pos="0" length="382.91" freq="300" file="output/data_e2.xml"/>

 <laneAreaDetector id="yuanlinlu_second_east_entry0" lane="-E19_0" pos="0" length="382.63" freq="300" file="output/data_e2.xml"/>
 <laneAreaDetector id="yuanlinlu_second_east_entry1" lane="-E19_1" pos="0" length="382.63" freq="300" file="output/data_e2.xml"/>
 <laneAreaDetector id="yuanlinlu_second_east_entry2" lane="-E19_2" pos="0" length="382.63" freq="300" file="output/data_e2.xml"/>
 <laneAreaDetector id="yuanlinlu_second_east_entry3" lane="-E19_3" pos="0" length="382.63" freq="300" file="output/data_e2.xml"/>

 <laneAreaDetector id="yuanlinlu_second_east_exit0" lane="E19_0" pos="0" length="382.63" freq="300" file="output/data_e2.xml"/>
 <laneAreaDetector id="yuanlinlu_second_east_exit1" lane="E19_1" pos="0" length="382.63" freq="300" file="output/data_e2.xml"/>
 <laneAreaDetector id="yuanlinlu_second_east_exit2" lane="E19_2" pos="0" length="382.63" freq="300" file="output/data_e2.xml"/>
 <laneAreaDetector id="yuanlinlu_second_east_exit3" lane="E19_3" pos="0" length="382.63" freq="300" file="output/data_e2.xml"/>

 <laneAreaDetector id="yuanlinlu_second_west_mid_entry0" lane="E17_0" pos="0" length="364.62" freq="300" file="output/data_e2.xml"/>
 <laneAreaDetector id="yuanlinlu_second_west_mid_entry1" lane="E17_1" pos="0" length="364.62" freq="300" file="output/data_e2.xml"/>
 <laneAreaDetector id="yuanlinlu_second_west_mid_entry2" lane="E17_2" pos="0" length="364.62" freq="300" file="output/data_e2.xml"/>
 <laneAreaDetector id="yuanlinlu_second_west_mid_entry3" lane="E17_3" pos="0" length="364.62" freq="300" file="output/data_e2.xml"/>

 <laneAreaDetector id="yuanlinlu_second_west_mid_exit0" lane="-E17_0" pos="0" length="364.62" freq="300" file="output/data_e2.xml"/>
 <laneAreaDetector id="yuanlinlu_second_west_mid_exit1" lane="-E17_1" pos="0" length="364.62" freq="300" file="output/data_e2.xml"/>
 <laneAreaDetector id="yuanlinlu_second_west_mid_exit2" lane="-E17_2" pos="0" length="364.62" freq="300" file="output/data_e2.xml"/>
 <laneAreaDetector id="yuanlinlu_second_west_mid_exit3" lane="-E17_3" pos="0" length="364.62" freq="300" file="output/data_e2.xml"/>

 <laneAreaDetector id="yuanlinlu_second_east_mid_entry0" lane="-E18_0" pos="0" length="364.71" freq="300" file="output/data_e2.xml"/>
 <laneAreaDetector id="yuanlinlu_second_east_mid_entry1" lane="-E18_1" pos="0" length="364.71" freq="300" file="output/data_e2.xml"/>
 <laneAreaDetector id="yuanlinlu_second_east_mid_entry2" lane="-E18_2" pos="0" length="364.71" freq="300" file="output/data_e2.xml"/>
 <laneAreaDetector id="yuanlinlu_second_east_mid_entry3" lane="-E18_3" pos="0" length="364.71" freq="300" file="output/data_e2.xml"/>

 <laneAreaDetector id="yuanlinlu_second_east_mid_exit0" lane="E18_0" pos="0" length="364.71" freq="300" file="output/data_e2.xml"/>
 <laneAreaDetector id="yuanlinlu_second_east_mid_exit1" lane="E18_1" pos="0" length="364.71" freq="300" file="output/data_e2.xml"/>
 <laneAreaDetector id="yuanlinlu_second_east_mid_exit2" lane="E18_2" pos="0" length="364.71" freq="300" file="output/data_e2.xml"/>
 <laneAreaDetector id="yuanlinlu_second_east_mid_exit3" lane="E18_3" pos="0" length="364.71" freq="300" file="output/data_e2.xml"/>

 <laneAreaDetector id="xingminlu_second_north_entry0" lane="-E10_0" pos="0" length="180.69" freq="300" file="output/data_e2.xml"/>
 <laneAreaDetector id="xingminlu_second_north_entry1" lane="-E10_1" pos="0" length="180.69" freq="300" file="output/data_e2.xml"/>
 <laneAreaDetector id="xingminlu_second_north_entry2" lane="-E10_2" pos="0" length="180.69" freq="300" file="output/data_e2.xml"/>

 <laneAreaDetector id="xingminlu_second_north_exit0" lane="E10_0" pos="0" length="180.69" freq="300" file="output/data_e2.xml"/>
 <laneAreaDetector id="xingminlu_second_north_exit1" lane="E10_1" pos="0" length="180.69" freq="300" file="output/data_e2.xml"/>
 <laneAreaDetector id="xingminlu_second_north_exit2" lane="E10_2" pos="0" length="180.69" freq="300" file="output/data_e2.xml"/>

 <laneAreaDetector id="xingminlu_second_south_entry0" lane="-E11_0" pos="0" length="183.05" freq="300" file="output/data_e2.xml"/>
 <laneAreaDetector id="xingminlu_second_south_entry1" lane="-E11_1" pos="0" length="183.05" freq="300" file="output/data_e2.xml"/>
 <laneAreaDetector id="xingminlu_second_south_entry2" lane="-E11_2" pos="0" length="183.05" freq="300" file="output/data_e2.xml"/>

 <laneAreaDetector id="xingminlu_second_south_exit0" lane="E11_0" pos="0" length="183.05" freq="300" file="output/data_e2.xml"/>
 <laneAreaDetector id="xingminlu_second_south_exit1" lane="E11_1" pos="0" length="183.05" freq="300" file="output/data_e2.xml"/>
 <laneAreaDetector id="xingminlu_second_south_exit2" lane="E11_2" pos="0" length="183.05" freq="300" file="output/data_e2.xml"/>

 <laneAreaDetector id="fukanglu_second_north_entry0" lane="-E12_0" pos="0" length="183.08" freq="300" file="output/data_e2.xml"/>
 <laneAreaDetector id="fukanglu_second_north_entry1" lane="-E12_1" pos="0" length="183.08" freq="300" file="output/data_e2.xml"/>
 <laneAreaDetector id="fukanglu_second_north_entry2" lane="-E12_2" pos="0" length="183.08" freq="300" file="output/data_e2.xml"/>
 <laneAreaDetector id="fukanglu_second_north_entry3" lane="-E12_3" pos="0" length="183.08" freq="300" file="output/data_e2.xml"/>

 <laneAreaDetector id="fukanglu_second_north_exit0" lane="E12_0" pos="0" length="183.08" freq="300" file="output/data_e2.xml"/>
 <laneAreaDetector id="fukanglu_second_north_exit1" lane="E12_1" pos="0" length="183.08" freq="300" file="output/data_e2.xml"/>
 <laneAreaDetector id="fukanglu_second_north_exit2" lane="E12_2" pos="0" length="183.08" freq="300" file="output/data_e2.xml"/>
 <laneAreaDetector id="fukanglu_second_north_exit3" lane="E12_3" pos="0" length="183.08" freq="300" file="output/data_e2.xml"/>

 <laneAreaDetector id="fukanglu_second_south_entry0" lane="-E13_0" pos="0" length="180.26" freq="300" file="output/data_e2.xml"/>
 <laneAreaDetector id="fukanglu_second_south_entry1" lane="-E13_1" pos="0" length="180.26" freq="300" file="output/data_e2.xml"/>
 <laneAreaDetector id="fukanglu_second_south_entry2" lane="-E13_2" pos="0" length="180.26" freq="300" file="output/data_e2.xml"/>
 <laneAreaDetector id="fukanglu_second_south_entry3" lane="-E13_3" pos="0" length="180.26" freq="300" file="output/data_e2.xml"/>

 <laneAreaDetector id="fukanglu_second_south_exit0" lane="E13_0" pos="0" length="180.26" freq="300" file="output/data_e2.xml"/>
 <laneAreaDetector id="fukanglu_second_south_exit1" lane="E13_1" pos="0" length="180.26" freq="300" file="output/data_e2.xml"/>
 <laneAreaDetector id="fukanglu_second_south_exit2" lane="E13_2" pos="0" length="180.26" freq="300" file="output/data_e2.xml"/>
 <laneAreaDetector id="fukanglu_second_south_exit3" lane="E13_3" pos="0" length="180.26" freq="300" file="output/data_e2.xml"/>

 <laneAreaDetector id="feitianlu_second_north_entry0" lane="-E14_0" pos="0" length="185.82" freq="300" file="output/data_e2.xml"/>
 <laneAreaDetector id="feitianlu_second_north_entry1" lane="-E14_1" pos="0" length="185.82" freq="300" file="output/data_e2.xml"/>
 <laneAreaDetector id="feitianlu_second_north_entry2" lane="-E14_2" pos="0" length="185.82" freq="300" file="output/data_e2.xml"/>

 <laneAreaDetector id="feitianlu_second_north_exit0" lane="E14_0" pos="0" length="185.82" freq="300" file="output/data_e2.xml"/>
 <laneAreaDetector id="feitianlu_second_north_exit1" lane="E14_1" pos="0" length="185.82" freq="300" file="output/data_e2.xml"/>
 <laneAreaDetector id="feitianlu_second_north_exit2" lane="E14_2" pos="0" length="185.82" freq="300" file="output/data_e2.xml"/>

 <laneAreaDetector id="feitianlu_second_south_entry0" lane="-E15_0" pos="0" length="183.52" freq="300" file="output/data_e2.xml"/>
 <laneAreaDetector id="feitianlu_second_south_entry1" lane="-E15_1" pos="0" length="183.52" freq="300" file="output/data_e2.xml"/>
 <laneAreaDetector id="feitianlu_second_south_entry2" lane="-E15_2" pos="0" length="183.52" freq="300" file="output/data_e2.xml"/>

 <laneAreaDetector id="feitianlu_second_south_exit0" lane="E15_0" pos="0" length="183.52" freq="300" file="output/data_e2.xml"/>
 <laneAreaDetector id="feitianlu_second_south_exit1" lane="E15_1" pos="0" length="183.52" freq="300" file="output/data_e2.xml"/>
 <laneAreaDetector id="feitianlu_second_south_exit2" lane="E15_2" pos="0" length="183.52" freq="300" file="output/data_e2.xml"/>
 </additional>