<?xml version="1.0" encoding="UTF-8"?>

<!-- generated on 2024-01-12 11:59:05 by Eclipse SUMO netedit Version 1.19.0
<configuration xmlns:xsi="http://www.w3.org/2001/XMLSchema-instance" xsi:noNamespaceSchemaLocation="http://sumo.dlr.de/xsd/neteditConfiguration.xsd">

    <input>
        <additional-files value="C:\school\study\DRL2.0-2024\2024\NASH-QL\sumo_network\busstops_def.add.xml"/>
        <sumo-net-file value="C:\school\study\DRL2.0-2024\2024\NASH-QL\sumo_network\example42.net.xml"/>
    </input>

    <output>
        <output-file value="C:\school\study\DRL2.0-2024\2024\NASH-QL\sumo_network\example42.net.xml"/>
    </output>

    <processing>
        <geometry.min-radius.fix.railways value="false"/>
        <geometry.max-grade.fix value="false"/>
        <offset.disable-normalization value="true"/>
        <lefthand value="0"/>
    </processing>

    <junctions>
        <no-internal-links value="false"/>
        <no-turnarounds value="true"/>
        <junctions.corner-detail value="5"/>
        <junctions.limit-turn-speed value="5.50"/>
        <rectangular-lane-cut value="0"/>
    </junctions>

    <pedestrian>
        <walkingareas value="0"/>
    </pedestrian>

    <netedit>
        <new-network value="false"/>
    </netedit>

    <visualisation>
        <gui-settings-file value="C:\school\study\DRL2.0-2024\2024\NASH-QL\sumo_network\viewsettings.xml"/>
    </visualisation>

</configuration>
-->

<net version="1.16" junctionCornerDetail="5" limitTurnSpeed="5.50" xmlns:xsi="http://www.w3.org/2001/XMLSchema-instance" xsi:noNamespaceSchemaLocation="http://sumo.dlr.de/xsd/net_file.xsd">

    <location netOffset="0.00,0.00" convBoundary="-800.00,-600.00,800.00,207.71" origBoundary="-10000000000.00,-10000000000.00,10000000000.00,10000000000.00" projParameter="!"/>

    <edge id=":J0_w0" function="walkingarea">
        <lane id=":J0_w0_0" index="0" allow="pedestrian" speed="2.78" length="29.00" width="5.00" shape="-779.85,-11.09 -779.85,-16.09 -779.85,17.91 -779.85,12.91"/>
    </edge>
    <edge id=":J1_0" function="internal">
        <lane id=":J1_0_0" index="0" allow="pedestrian moped bicycle" speed="7.14" length="6.27" width="5.00" shape="-411.61,21.91 -412.02,19.07 -413.24,17.04 -414.12,16.51"/>
    </edge>
    <edge id=":J1_1" function="internal">
        <lane id=":J1_1_0" index="0" allow="pedestrian moped bicycle" speed="13.89" length="42.01" width="5.00" shape="-411.61,21.91 -411.62,-20.10"/>
    </edge>
    <edge id=":J1_2" function="internal">
        <lane id=":J1_2_0" index="0" allow="private emergency authority army vip passenger hov taxi bus coach delivery truck trailer motorcycle evehicle custom1 custom2" speed="8.95" length="5.55" width="4.00" shape="-407.11,21.91 -407.80,17.10 -408.16,16.51"/>
    </edge>
    <edge id=":J1_3" function="internal">
        <lane id=":J1_3_0" index="0" allow="private emergency authority army vip passenger hov taxi bus coach delivery truck trailer motorcycle evehicle custom1 custom2" speed="13.89" length="42.01" width="4.00" shape="-403.11,21.91 -403.12,-20.10"/>
    </edge>
    <edge id=":J1_4" function="internal">
        <lane id=":J1_4_0" index="0" allow="private emergency authority army vip passenger hov taxi bus coach delivery truck trailer motorcycle evehicle custom1 custom2" speed="12.17" length="29.88" width="4.00" shape="-403.11,21.91 -401.93,11.85 -398.37,4.66 -392.43,0.34 -388.11,-0.40"/>
    </edge>
    <edge id=":J1_20" function="internal">
        <lane id=":J1_20_0" index="0" allow="pedestrian moped bicycle" speed="7.14" length="4.22" width="5.00" shape="-414.12,16.51 -415.27,15.82 -418.12,15.41"/>
    </edge>
    <edge id=":J1_21" function="internal">
        <lane id=":J1_21_0" index="0" allow="private emergency authority army vip passenger hov taxi bus coach delivery truck trailer motorcycle evehicle custom1 custom2" speed="8.95" length="12.20" width="4.00" shape="-408.16,16.51 -409.87,13.66 -413.30,11.60 -418.12,10.91"/>
    </edge>
    <edge id=":J1_22" function="internal">
        <lane id=":J1_22_0" index="0" allow="private emergency authority army vip passenger hov taxi bus coach delivery truck trailer motorcycle evehicle custom1 custom2" speed="12.17" length="4.06" width="4.00" shape="-388.11,-0.40 -384.11,-1.10"/>
    </edge>
    <edge id=":J1_5" function="internal">
        <lane id=":J1_5_0" index="0" allow="pedestrian moped bicycle" speed="7.14" length="6.27" width="5.00" shape="-384.10,15.40 -386.95,15.81 -388.99,17.03 -389.51,17.90"/>
    </edge>
    <edge id=":J1_6" function="internal">
        <lane id=":J1_6_0" index="0" allow="pedestrian moped bicycle" speed="13.89" length="34.01" width="5.00" shape="-384.10,15.40 -418.12,15.41"/>
    </edge>
    <edge id=":J1_7" function="internal">
        <lane id=":J1_7_0" index="0" allow="private emergency authority army vip passenger hov taxi bus coach delivery truck trailer motorcycle evehicle custom1 custom2" speed="8.95" length="5.55" width="4.00" shape="-384.11,10.90 -388.92,11.59 -389.51,11.94"/>
    </edge>
    <edge id=":J1_8" function="internal">
        <lane id=":J1_8_0" index="0" allow="private emergency authority army vip passenger hov taxi bus coach delivery truck trailer motorcycle evehicle custom1 custom2" speed="13.89" length="34.01" width="4.00" shape="-384.11,6.90 -418.12,6.91"/>
    </edge>
    <edge id=":J1_9" function="internal">
        <lane id=":J1_9_0" index="0" allow="private emergency authority army vip passenger hov taxi bus coach delivery truck trailer motorcycle evehicle custom1 custom2" speed="12.17" length="29.91" width="4.00" shape="-384.11,2.90 -392.43,1.47 -398.37,-2.84 -401.93,-10.03 -402.65,-16.10"/>
    </edge>
    <edge id=":J1_23" function="internal">
        <lane id=":J1_23_0" index="0" allow="pedestrian moped bicycle" speed="7.14" length="4.22" width="5.00" shape="-389.51,17.90 -390.21,19.06 -390.61,21.90"/>
    </edge>
    <edge id=":J1_24" function="internal">
        <lane id=":J1_24_0" index="0" allow="private emergency authority army vip passenger hov taxi bus coach delivery truck trailer motorcycle evehicle custom1 custom2" speed="8.95" length="12.20" width="4.00" shape="-389.51,11.94 -392.36,13.66 -394.43,17.09 -395.11,21.91"/>
    </edge>
    <edge id=":J1_25" function="internal">
        <lane id=":J1_25_0" index="0" allow="private emergency authority army vip passenger hov taxi bus coach delivery truck trailer motorcycle evehicle custom1 custom2" speed="12.17" length="4.03" width="4.00" shape="-402.65,-16.10 -403.12,-20.10"/>
    </edge>
    <edge id=":J1_10" function="internal">
        <lane id=":J1_10_0" index="0" allow="pedestrian moped bicycle" speed="7.13" length="6.26" width="5.00" shape="-390.62,-20.10 -390.21,-17.25 -388.99,-15.22 -388.12,-14.70"/>
    </edge>
    <edge id=":J1_11" function="internal">
        <lane id=":J1_11_0" index="0" allow="pedestrian moped bicycle" speed="13.89" length="42.00" width="5.00" shape="-390.62,-20.10 -390.61,21.90"/>
    </edge>
    <edge id=":J1_12" function="internal">
        <lane id=":J1_12_0" index="0" allow="private emergency authority army vip passenger hov taxi bus coach delivery truck trailer motorcycle evehicle custom1 custom2" speed="8.95" length="5.55" width="4.00" shape="-395.12,-20.10 -394.43,-15.28 -394.08,-14.69"/>
    </edge>
    <edge id=":J1_13" function="internal">
        <lane id=":J1_13_0" index="0" allow="private emergency authority army vip passenger hov taxi bus coach delivery truck trailer motorcycle evehicle custom1 custom2" speed="13.89" length="42.00" width="4.00" shape="-399.12,-20.10 -399.11,21.91"/>
    </edge>
    <edge id=":J1_14" function="internal">
        <lane id=":J1_14_0" index="0" allow="private emergency authority army vip passenger hov taxi bus coach delivery truck trailer motorcycle evehicle custom1 custom2" speed="12.17" length="29.87" width="4.00" shape="-399.12,-20.10 -400.31,-10.03 -403.87,-2.84 -409.81,1.47 -414.12,2.22"/>
    </edge>
    <edge id=":J1_26" function="internal">
        <lane id=":J1_26_0" index="0" allow="pedestrian moped bicycle" speed="7.13" length="4.22" width="5.00" shape="-388.12,-14.70 -386.96,-14.00 -384.12,-13.60"/>
    </edge>
    <edge id=":J1_27" function="internal">
        <lane id=":J1_27_0" index="0" allow="private emergency authority army vip passenger hov taxi bus coach delivery truck trailer motorcycle evehicle custom1 custom2" speed="8.95" length="12.19" width="4.00" shape="-394.08,-14.69 -392.37,-11.84 -388.93,-9.78 -384.11,-9.10"/>
    </edge>
    <edge id=":J1_28" function="internal">
        <lane id=":J1_28_0" index="0" allow="private emergency authority army vip passenger hov taxi bus coach delivery truck trailer motorcycle evehicle custom1 custom2" speed="12.17" length="4.06" width="4.00" shape="-414.12,2.22 -418.12,2.91"/>
    </edge>
    <edge id=":J1_15" function="internal">
        <lane id=":J1_15_0" index="0" allow="pedestrian moped bicycle" speed="7.14" length="6.27" width="5.00" shape="-418.12,-13.59 -415.27,-14.00 -413.24,-15.22 -412.71,-16.10"/>
    </edge>
    <edge id=":J1_16" function="internal">
        <lane id=":J1_16_0" index="0" allow="pedestrian moped bicycle" speed="13.89" length="34.00" width="5.00" shape="-418.12,-13.59 -384.12,-13.60"/>
    </edge>
    <edge id=":J1_17" function="internal">
        <lane id=":J1_17_0" index="0" allow="private emergency authority army vip passenger hov taxi bus coach delivery truck trailer motorcycle evehicle custom1 custom2" speed="8.95" length="5.55" width="4.00" shape="-418.12,-9.09 -413.31,-9.78 -412.72,-10.13"/>
    </edge>
    <edge id=":J1_18" function="internal">
        <lane id=":J1_18_0" index="0" allow="private emergency authority army vip passenger hov taxi bus coach delivery truck trailer motorcycle evehicle custom1 custom2" speed="13.89" length="34.00" width="4.00" shape="-418.12,-5.09 -384.11,-5.10"/>
    </edge>
    <edge id=":J1_19" function="internal">
        <lane id=":J1_19_0" index="0" allow="private emergency authority army vip passenger hov taxi bus coach delivery truck trailer motorcycle evehicle custom1 custom2" speed="12.17" length="29.90" width="4.00" shape="-418.12,-1.09 -409.81,0.35 -403.87,4.66 -400.30,11.85 -399.59,17.91"/>
    </edge>
    <edge id=":J1_29" function="internal">
        <lane id=":J1_29_0" index="0" allow="pedestrian moped bicycle" speed="7.14" length="4.22" width="5.00" shape="-412.71,-16.10 -412.02,-17.25 -411.62,-20.10"/>
    </edge>
    <edge id=":J1_30" function="internal">
        <lane id=":J1_30_0" index="0" allow="private emergency authority army vip passenger hov taxi bus coach delivery truck trailer motorcycle evehicle custom1 custom2" speed="8.95" length="12.20" width="4.00" shape="-412.72,-10.13 -409.87,-11.84 -407.81,-15.28 -407.12,-20.10"/>
    </edge>
    <edge id=":J1_31" function="internal">
        <lane id=":J1_31_0" index="0" allow="private emergency authority army vip passenger hov taxi bus coach delivery truck trailer motorcycle evehicle custom1 custom2" speed="12.17" length="4.03" width="4.00" shape="-399.59,17.91 -399.11,21.91"/>
    </edge>
    <edge id=":J1_c0" function="crossing" crossingEdges="E3 -E3">
        <lane id=":J1_c0_0" index="0" allow="pedestrian" speed="2.78" length="16.00" width="4.00" shape="-393.11,19.91 -409.11,19.91"/>
    </edge>
    <edge id=":J1_c1" function="crossing" crossingEdges="E2 -E2">
        <lane id=":J1_c1_0" index="0" allow="pedestrian" speed="2.78" length="24.00" width="4.00" shape="-386.12,-11.10 -386.10,12.90"/>
    </edge>
    <edge id=":J1_c2" function="crossing" crossingEdges="E1 -E1">
        <lane id=":J1_c2_0" index="0" allow="pedestrian" speed="2.78" length="16.00" width="4.00" shape="-409.12,-18.10 -393.12,-18.10"/>
    </edge>
    <edge id=":J1_c3" function="crossing" crossingEdges="-E0 E0">
        <lane id=":J1_c3_0" index="0" allow="pedestrian" speed="2.78" length="24.00" width="4.00" shape="-416.12,12.91 -416.12,-11.09"/>
    </edge>
    <edge id=":J1_w0" function="walkingarea">
        <lane id=":J1_w0_0" index="0" allow="pedestrian" speed="2.78" length="7.61" width="5.00" shape="-418.12,12.91 -418.12,17.91 -414.11,21.91 -409.11,21.91 -409.36,19.16 -410.12,16.91 -411.37,15.16 -413.12,13.91 -415.37,13.16"/>
    </edge>
    <edge id=":J1_w1" function="walkingarea">
        <lane id=":J1_w1_0" index="0" allow="pedestrian" speed="2.78" length="7.61" width="5.00" shape="-393.11,21.91 -388.11,21.90 -384.10,17.90 -384.10,12.90 -386.86,13.15 -389.11,13.90 -390.86,15.16 -392.11,16.91 -392.86,19.16"/>
    </edge>
    <edge id=":J1_w2" function="walkingarea">
        <lane id=":J1_w2_0" index="0" allow="pedestrian" speed="2.78" length="7.60" width="5.00" shape="-384.12,-11.10 -384.12,-16.10 -388.12,-20.10 -393.12,-20.10 -392.87,-17.35 -392.12,-15.10 -390.87,-13.35 -389.12,-12.10 -386.87,-11.35"/>
    </edge>
    <edge id=":J1_w3" function="walkingarea">
        <lane id=":J1_w3_0" index="0" allow="pedestrian" speed="2.78" length="7.61" width="5.00" shape="-409.12,-20.10 -414.12,-20.10 -418.12,-16.09 -418.12,-11.09 -415.37,-11.34 -413.12,-12.09 -411.37,-13.34 -410.12,-15.09 -409.37,-17.35"/>
    </edge>
    <edge id=":J10_w0" function="walkingarea">
        <lane id=":J10_w0_0" index="0" allow="pedestrian" speed="2.78" length="21.00" width="5.00" shape="396.32,207.71 391.32,207.72 417.32,207.70 412.32,207.71"/>
    </edge>
    <edge id=":J11_0" function="internal">
        <lane id=":J11_0_0" index="0" allow="pedestrian moped bicycle" speed="7.20" length="6.46" width="5.00" shape="-383.00,-385.50 -385.88,-385.09 -387.94,-383.84 -388.53,-382.86"/>
    </edge>
    <edge id=":J11_1" function="internal">
        <lane id=":J11_1_0" index="0" allow="pedestrian moped bicycle" speed="13.89" length="34.09" width="5.00" shape="-383.00,-385.50 -417.09,-385.50"/>
    </edge>
    <edge id=":J11_2" function="internal">
        <lane id=":J11_2_0" index="0" allow="private emergency authority army vip passenger hov taxi bus coach delivery truck trailer motorcycle evehicle custom1 custom2" speed="9.00" length="5.56" width="4.00" shape="-383.00,-390.00 -387.84,-389.31 -388.42,-388.96"/>
    </edge>
    <edge id=":J11_3" function="internal">
        <lane id=":J11_3_0" index="0" allow="private emergency authority army vip passenger hov taxi bus coach delivery truck trailer motorcycle evehicle custom1 custom2" speed="13.89" length="34.09" width="4.00" shape="-383.00,-394.00 -417.09,-394.00"/>
    </edge>
    <edge id=":J11_4" function="internal">
        <lane id=":J11_4_0" index="0" allow="private emergency authority army vip passenger hov taxi bus coach delivery truck trailer motorcycle evehicle custom1 custom2" speed="12.17" length="14.54" width="4.00" shape="-383.00,-398.00 -391.31,-399.44 -396.25,-403.03"/>
    </edge>
    <edge id=":J11_20" function="internal">
        <lane id=":J11_20_0" index="0" allow="pedestrian moped bicycle" speed="7.20" length="4.21" width="5.00" shape="-388.53,-382.86 -389.19,-381.77 -389.62,-378.87"/>
    </edge>
    <edge id=":J11_21" function="internal">
        <lane id=":J11_21_0" index="0" allow="private emergency authority army vip passenger hov taxi bus coach delivery truck trailer motorcycle evehicle custom1 custom2" speed="9.00" length="12.33" width="4.00" shape="-388.42,-388.96 -391.31,-387.22 -393.40,-383.75 -394.12,-378.89"/>
    </edge>
    <edge id=":J11_22" function="internal">
        <lane id=":J11_22_0" index="0" allow="private emergency authority army vip passenger hov taxi bus coach delivery truck trailer motorcycle evehicle custom1 custom2" speed="12.17" length="19.39" width="4.00" shape="-396.25,-403.03 -397.25,-403.75 -400.81,-410.94 -402.00,-421.00"/>
    </edge>
    <edge id=":J11_5" function="internal">
        <lane id=":J11_5_0" index="0" allow="pedestrian moped bicycle" speed="7.14" length="6.26" width="5.00" shape="-389.50,-421.00 -389.09,-418.16 -387.88,-416.12 -387.00,-415.60"/>
    </edge>
    <edge id=":J11_6" function="internal">
        <lane id=":J11_6_0" index="0" allow="pedestrian moped bicycle" speed="13.89" length="42.13" width="5.00" shape="-389.50,-421.00 -389.62,-378.87"/>
    </edge>
    <edge id=":J11_7" function="internal">
        <lane id=":J11_7_0" index="0" allow="private emergency authority army vip passenger hov taxi bus coach delivery truck trailer motorcycle evehicle custom1 custom2" speed="8.95" length="5.52" width="4.00" shape="-394.00,-421.00 -393.31,-416.19 -392.97,-415.62"/>
    </edge>
    <edge id=":J11_8" function="internal">
        <lane id=":J11_8_0" index="0" allow="private emergency authority army vip passenger hov taxi bus coach delivery truck trailer motorcycle evehicle custom1 custom2" speed="13.89" length="42.08" width="4.00" shape="-398.00,-421.00 -398.12,-378.92"/>
    </edge>
    <edge id=":J11_9" function="internal">
        <lane id=":J11_9_0" index="0" allow="private emergency authority army vip passenger hov taxi bus coach delivery truck trailer motorcycle evehicle custom1 custom2" speed="12.18" length="9.62" width="4.00" shape="-398.00,-421.00 -399.13,-411.45"/>
    </edge>
    <edge id=":J11_23" function="internal">
        <lane id=":J11_23_0" index="0" allow="pedestrian moped bicycle" speed="7.14" length="4.22" width="5.00" shape="-387.00,-415.60 -385.84,-414.91 -383.00,-414.50"/>
    </edge>
    <edge id=":J11_24" function="internal">
        <lane id=":J11_24_0" index="0" allow="private emergency authority army vip passenger hov taxi bus coach delivery truck trailer motorcycle evehicle custom1 custom2" speed="8.95" length="12.22" width="4.00" shape="-392.97,-415.62 -391.25,-412.75 -387.81,-410.69 -383.00,-410.00"/>
    </edge>
    <edge id=":J11_25" function="internal">
        <lane id=":J11_25_0" index="0" allow="private emergency authority army vip passenger hov taxi bus coach delivery truck trailer motorcycle evehicle custom1 custom2" speed="12.18" length="24.39" width="4.00" shape="-399.13,-411.45 -399.19,-410.94 -402.77,-403.75 -408.74,-399.44 -417.09,-398.00"/>
    </edge>
    <edge id=":J11_10" function="internal">
        <lane id=":J11_10_0" index="0" allow="pedestrian moped bicycle" speed="7.16" length="6.33" width="5.00" shape="-417.09,-414.50 -414.21,-414.91 -412.15,-416.12 -411.62,-417.00"/>
    </edge>
    <edge id=":J11_11" function="internal">
        <lane id=":J11_11_0" index="0" allow="pedestrian moped bicycle" speed="13.89" length="34.09" width="5.00" shape="-417.09,-414.50 -383.00,-414.50"/>
    </edge>
    <edge id=":J11_12" function="internal">
        <lane id=":J11_12_0" index="0" allow="private emergency authority army vip passenger hov taxi bus coach delivery truck trailer motorcycle evehicle custom1 custom2" speed="8.96" length="5.60" width="4.00" shape="-417.09,-410.00 -412.24,-410.69 -411.64,-411.04"/>
    </edge>
    <edge id=":J11_13" function="internal">
        <lane id=":J11_13_0" index="0" allow="private emergency authority army vip passenger hov taxi bus coach delivery truck trailer motorcycle evehicle custom1 custom2" speed="13.89" length="34.09" width="4.00" shape="-417.09,-406.00 -383.00,-406.00"/>
    </edge>
    <edge id=":J11_14" function="internal">
        <lane id=":J11_14_0" index="0" allow="private emergency authority army vip passenger hov taxi bus coach delivery truck trailer motorcycle evehicle custom1 custom2" speed="12.16" length="14.56" width="4.00" shape="-417.09,-402.00 -408.74,-400.56 -403.82,-396.97"/>
    </edge>
    <edge id=":J11_26" function="internal">
        <lane id=":J11_26_0" index="0" allow="pedestrian moped bicycle" speed="7.16" length="4.23" width="5.00" shape="-411.62,-417.00 -410.91,-418.16 -410.50,-421.00"/>
    </edge>
    <edge id=":J11_27" function="internal">
        <lane id=":J11_27_0" index="0" allow="private emergency authority army vip passenger hov taxi bus coach delivery truck trailer motorcycle evehicle custom1 custom2" speed="8.96" length="12.22" width="4.00" shape="-411.64,-411.04 -408.77,-412.75 -406.69,-416.19 -406.00,-421.00"/>
    </edge>
    <edge id=":J11_28" function="internal">
        <lane id=":J11_28_0" index="0" allow="private emergency authority army vip passenger hov taxi bus coach delivery truck trailer motorcycle evehicle custom1 custom2" speed="12.16" length="19.47" width="4.00" shape="-403.82,-396.97 -402.80,-396.23 -399.25,-389.02 -398.12,-378.92"/>
    </edge>
    <edge id=":J11_15" function="internal">
        <lane id=":J11_15_0" index="0" allow="pedestrian moped bicycle" speed="7.12" length="6.27" width="5.00" shape="-410.62,-378.99 -411.01,-381.84 -412.22,-383.87 -413.09,-384.40"/>
    </edge>
    <edge id=":J11_16" function="internal">
        <lane id=":J11_16_0" index="0" allow="pedestrian moped bicycle" speed="13.89" length="42.01" width="5.00" shape="-410.62,-378.99 -410.50,-421.00"/>
    </edge>
    <edge id=":J11_17" function="internal">
        <lane id=":J11_17_0" index="0" allow="private emergency authority army vip passenger hov taxi bus coach delivery truck trailer motorcycle evehicle custom1 custom2" speed="8.94" length="5.58" width="4.00" shape="-406.12,-378.96 -406.78,-383.79 -407.14,-384.40"/>
    </edge>
    <edge id=":J11_18" function="internal">
        <lane id=":J11_18_0" index="0" allow="private emergency authority army vip passenger hov taxi bus coach delivery truck trailer motorcycle evehicle custom1 custom2" speed="13.89" length="42.06" width="4.00" shape="-402.12,-378.94 -402.00,-421.00"/>
    </edge>
    <edge id=":J11_19" function="internal">
        <lane id=":J11_19_0" index="0" allow="private emergency authority army vip passenger hov taxi bus coach delivery truck trailer motorcycle evehicle custom1 custom2" speed="12.21" length="9.26" width="4.00" shape="-402.12,-378.94 -400.98,-388.13"/>
    </edge>
    <edge id=":J11_29" function="internal">
        <lane id=":J11_29_0" index="0" allow="pedestrian moped bicycle" speed="7.12" length="4.22" width="5.00" shape="-413.09,-384.40 -414.25,-385.09 -417.09,-385.50"/>
    </edge>
    <edge id=":J11_30" function="internal">
        <lane id=":J11_30_0" index="0" allow="private emergency authority army vip passenger hov taxi bus coach delivery truck trailer motorcycle evehicle custom1 custom2" speed="8.94" length="12.19" width="4.00" shape="-407.14,-384.40 -408.83,-387.24 -412.27,-389.31 -417.09,-390.00"/>
    </edge>
    <edge id=":J11_31" function="internal">
        <lane id=":J11_31_0" index="0" allow="private emergency authority army vip passenger hov taxi bus coach delivery truck trailer motorcycle evehicle custom1 custom2" speed="12.21" length="24.76" width="4.00" shape="-400.98,-388.13 -400.87,-389.03 -397.27,-396.23 -391.32,-400.56 -383.00,-402.00"/>
    </edge>
    <edge id=":J11_c0" function="crossing" crossingEdges="E17 -E17">
        <lane id=":J11_c0_0" index="0" allow="pedestrian" speed="2.78" length="24.00" width="4.00" shape="-385.00,-412.00 -385.00,-388.00"/>
    </edge>
    <edge id=":J11_c1" function="crossing" crossingEdges="E11 -E11">
        <lane id=":J11_c1_0" index="0" allow="pedestrian" speed="2.78" length="16.00" width="4.00" shape="-408.00,-419.00 -392.00,-419.00"/>
    </edge>
    <edge id=":J11_c2" function="crossing" crossingEdges="-E16 E16">
        <lane id=":J11_c2_0" index="0" allow="pedestrian" speed="2.78" length="24.00" width="4.00" shape="-415.09,-388.00 -415.09,-412.00"/>
    </edge>
    <edge id=":J11_c3" function="crossing" crossingEdges="-E10 E10">
        <lane id=":J11_c3_0" index="0" allow="pedestrian" speed="2.78" length="16.00" width="4.00" shape="-392.11,-380.88 -408.11,-380.97"/>
    </edge>
    <edge id=":J11_w0" function="walkingarea">
        <lane id=":J11_w0_0" index="0" allow="pedestrian" speed="2.78" length="7.71" width="5.00" shape="-392.12,-378.88 -387.12,-378.86 -383.00,-383.00 -383.00,-388.00 -385.77,-387.75 -388.04,-386.99 -389.81,-385.72 -391.08,-383.95 -391.85,-381.67"/>
    </edge>
    <edge id=":J11_w1" function="walkingarea">
        <lane id=":J11_w1_0" index="0" allow="pedestrian" speed="2.78" length="7.60" width="5.00" shape="-383.00,-412.00 -383.00,-417.00 -387.00,-421.00 -392.00,-421.00 -391.75,-418.25 -391.00,-416.00 -389.75,-414.25 -388.00,-413.00 -385.75,-412.25"/>
    </edge>
    <edge id=":J11_w2" function="walkingarea">
        <lane id=":J11_w2_0" index="0" allow="pedestrian" speed="2.78" length="7.65" width="5.00" shape="-408.00,-421.00 -413.00,-421.00 -417.09,-417.00 -417.09,-412.00 -414.32,-412.25 -412.04,-413.00 -410.27,-414.25 -409.01,-416.00 -408.25,-418.25"/>
    </edge>
    <edge id=":J11_w3" function="walkingarea">
        <lane id=":J11_w3_0" index="0" allow="pedestrian" speed="2.78" length="7.61" width="5.00" shape="-417.09,-388.00 -417.09,-383.00 -413.12,-379.00 -408.12,-378.97 -408.35,-381.73 -409.09,-383.99 -410.34,-385.74 -412.08,-387.00 -414.34,-387.75"/>
    </edge>
    <edge id=":J12_w0" function="walkingarea">
        <lane id=":J12_w0_0" index="0" allow="pedestrian" speed="2.78" length="21.00" width="5.00" shape="-392.00,-600.00 -387.00,-600.00 -413.00,-600.00 -408.00,-600.00"/>
    </edge>
    <edge id=":J13_0" function="internal">
        <lane id=":J13_0_0" index="0" allow="pedestrian moped bicycle" speed="7.25" length="6.58" width="5.00" shape="-14.33,-378.75 -14.77,-381.70 -16.03,-383.81 -17.00,-384.41"/>
    </edge>
    <edge id=":J13_1" function="internal">
        <lane id=":J13_1_0" index="0" allow="pedestrian moped bicycle" speed="13.89" length="42.25" width="5.00" shape="-14.33,-378.75 -14.50,-421.00"/>
    </edge>
    <edge id=":J13_2" function="internal">
        <lane id=":J13_2_0" index="0" allow="private emergency authority army vip passenger hov taxi bus coach delivery truck trailer motorcycle evehicle custom1 custom2" speed="9.04" length="5.61" width="4.00" shape="-9.83,-378.79 -10.56,-383.69 -10.90,-384.25"/>
    </edge>
    <edge id=":J13_3" function="internal">
        <lane id=":J13_3_0" index="0" allow="private emergency authority army vip passenger hov taxi bus coach delivery truck trailer motorcycle evehicle custom1 custom2" speed="13.89" length="42.18" width="4.00" shape="-5.83,-378.82 -6.00,-421.00"/>
    </edge>
    <edge id=":J13_4" function="internal">
        <lane id=":J13_4_0" index="0" allow="private emergency authority army vip passenger hov taxi bus coach delivery truck trailer motorcycle evehicle custom1 custom2" speed="12.69" length="17.30" width="4.00" shape="-1.83,-378.85 -0.47,-388.98 3.14,-395.07"/>
    </edge>
    <edge id=":J13_20" function="internal">
        <lane id=":J13_20_0" index="0" allow="pedestrian moped bicycle" speed="7.25" length="4.22" width="5.00" shape="-17.00,-384.41 -18.10,-385.08 -21.00,-385.50"/>
    </edge>
    <edge id=":J13_21" function="internal">
        <lane id=":J13_21_0" index="0" allow="private emergency authority army vip passenger hov taxi bus coach delivery truck trailer motorcycle evehicle custom1 custom2" speed="9.04" length="12.41" width="4.00" shape="-10.90,-384.25 -12.67,-387.20 -16.15,-389.30 -21.00,-390.00"/>
    </edge>
    <edge id=":J13_22" function="internal">
        <lane id=":J13_22_0" index="0" allow="private emergency authority army vip passenger hov taxi bus coach delivery truck trailer motorcycle evehicle custom1 custom2" speed="12.69" length="19.95" width="4.00" shape="3.14,-395.07 3.82,-396.21 11.02,-400.55 21.13,-402.00"/>
    </edge>
    <edge id=":J13_5" function="internal">
        <lane id=":J13_5_0" index="0" allow="pedestrian moped bicycle" speed="7.12" length="6.27" width="5.00" shape="21.13,-385.50 18.29,-385.09 16.26,-383.87 15.74,-382.99"/>
    </edge>
    <edge id=":J13_6" function="internal">
        <lane id=":J13_6_0" index="0" allow="pedestrian moped bicycle" speed="13.89" length="42.13" width="5.00" shape="21.13,-385.50 -21.00,-385.50"/>
    </edge>
    <edge id=":J13_7" function="internal">
        <lane id=":J13_7_0" index="0" allow="private emergency authority army vip passenger hov taxi bus coach delivery truck trailer motorcycle evehicle custom1 custom2" speed="8.93" length="5.56" width="4.00" shape="21.13,-390.00 16.30,-389.31 15.72,-388.96"/>
    </edge>
    <edge id=":J13_8" function="internal">
        <lane id=":J13_8_0" index="0" allow="private emergency authority army vip passenger hov taxi bus coach delivery truck trailer motorcycle evehicle custom1 custom2" speed="13.89" length="42.13" width="4.00" shape="21.13,-394.00 -21.00,-394.00"/>
    </edge>
    <edge id=":J13_9" function="internal">
        <lane id=":J13_9_0" index="0" allow="private emergency authority army vip passenger hov taxi bus coach delivery truck trailer motorcycle evehicle custom1 custom2" speed="12.72" length="17.26" width="4.00" shape="21.13,-398.00 11.01,-399.44 4.97,-403.04"/>
    </edge>
    <edge id=":J13_23" function="internal">
        <lane id=":J13_23_0" index="0" allow="pedestrian moped bicycle" speed="7.12" length="4.22" width="5.00" shape="15.74,-382.99 15.05,-381.83 14.67,-378.98"/>
    </edge>
    <edge id=":J13_24" function="internal">
        <lane id=":J13_24_0" index="0" allow="private emergency authority army vip passenger hov taxi bus coach delivery truck trailer motorcycle evehicle custom1 custom2" speed="8.93" length="12.23" width="4.00" shape="15.72,-388.96 12.86,-387.24 10.82,-383.78 10.17,-378.95"/>
    </edge>
    <edge id=":J13_25" function="internal">
        <lane id=":J13_25_0" index="0" allow="private emergency authority army vip passenger hov taxi bus coach delivery truck trailer motorcycle evehicle custom1 custom2" speed="12.72" length="19.94" width="4.00" shape="4.97,-403.04 3.78,-403.75 -0.55,-410.94 -2.00,-421.00"/>
    </edge>
    <edge id=":J13_10" function="internal">