<?xml version="1.0" encoding="UTF-8"?>

<!-- generated on 2023-12-17 16:20:11 by Eclipse SUMO netedit Version 1.19.0
-->

<additional xmlns:xsi="http://www.w3.org/2001/XMLSchema-instance" xsi:noNamespaceSchemaLocation="http://sumo.dlr.de/xsd/additional_file.xsd">
    <!-- StoppingPlaces -->
    <busStop id="ertongleyuan_north" lane="-E0_1" startPos="147.30" endPos="159.50" lines="EToW">
        <access lane="-E0_0" pos="155.00"/>
    </busStop>
    <busStop id="ertongleyuan_south" lane="E0_1" startPos="202.00" endPos="215.00" lines="WToE">
        <access lane="E0_0" pos="210.00"/>
    </busStop>
    <busStop id="guangmingxiaoqu_east" lane="-E7_1" startPos="28.00" endPos="40.50" lines="DownRight2UpLeft">
        <access lane="-E7_0" pos="30.00"/>
    </busStop>
    <busStop id="guangmingxiaoqu_west" lane="E7_1" startPos="143.00" endPos="156.00" lines="UpLeft2DownRight">
        <access lane="E7_0" pos="144.00"/>
    </busStop>
    <busStop id="postoffice_east" lane="E3_1" startPos="142.50" endPos="155.00" lines="DownRight2UpLeft">
        <access lane="E3_0" pos="140.00"/>
    </busStop>
    <busStop id="postoffice_west" lane="-E3_1" startPos="25.00" endPos="38.00" lines="UpLeft2DownRight">
        <access lane="-E3_0" pos="34.00"/>
    </busStop>
    <busStop id="shuidianju_north" lane="-E8_1" startPos="166.30" endPos="178.50" lines="EToW">
        <access lane="-E8_0" pos="170.00"/>
    </busStop>
    <busStop id="shuidianju_south" lane="E8_1" startPos="147.00" endPos="160.00" lines="WToE">
        <access lane="E8_0" pos="150.00"/>
    </busStop>
    <busStop id="zhiwuyuan_north" lane="-E5_1" startPos="155.00" endPos="167.50" lines="EToW">
        <access lane="-E5_0" pos="159.00"/>
    </busStop>
    <busStop id="zhiwuyuan_south" lane="E5_1" startPos="197.00" endPos="210.00" lines="WToE">
        <access lane="E5_0" pos="200.00"/>
    </busStop>
</additional>
