<additional>
 <entryExitDetector id="e3_det" freq="120" file="output/data_e3.xml">
     <detEntry lane="E0_0" pos="50"/>
     <detEntry lane="E0_1" pos="50"/>
     <detEntry lane="E0_2" pos="50"/>
     <detEntry lane="E0_3" pos="50"/>
     <detEntry lane="-E1_0" pos="50"/>
     <detEntry lane="-E1_1" pos="50"/>
     <detEntry lane="-E1_2" pos="50"/>
     <detEntry lane="-E4_0" pos="50"/>
     <detEntry lane="-E4_1" pos="50"/>
     <detEntry lane="-E4_2" pos="50"/>
     <detEntry lane="-E4_3" pos="50"/>
     <detEntry lane="-E7_0" pos="50"/>
     <detEntry lane="-E7_1" pos="50"/>
     <detEntry lane="-E7_2" pos="50"/>
     <detEntry lane="-E8_0" pos="50"/>
     <detEntry lane="-E8_1" pos="50"/>
     <detEntry lane="-E8_2" pos="50"/>
     <detEntry lane="-E8_3" pos="50"/>
     <detEntry lane="-E9_0" pos="50"/>
     <detEntry lane="-E9_1" pos="50"/>
     <detEntry lane="-E9_2" pos="50"/>
     <detEntry lane="-E6_0" pos="50"/>
     <detEntry lane="-E6_1" pos="50"/>
     <detEntry lane="-E6_2" pos="50"/>
     <detEntry lane="-E6_3" pos="50"/>
     <detEntry lane="-E3_0" pos="50"/>
     <detEntry lane="-E3_1" pos="50"/>
     <detEntry lane="-E3_2" pos="50"/>

     <detExit lane="-E0_0" pos="50"/>
     <detExit lane="-E0_1" pos="50"/>
     <detExit lane="-E0_2" pos="50"/>
     <detExit lane="-E0_3" pos="50"/>
     <detExit lane="E1_0" pos="50"/>
     <detExit lane="E1_1" pos="50"/>
     <detExit lane="E1_2" pos="50"/>
     <detExit lane="E4_0" pos="50"/>
     <detExit lane="E4_1" pos="50"/>
     <detExit lane="E4_2" pos="50"/>
     <detExit lane="E4_3" pos="50"/>
     <detExit lane="E7_0" pos="50"/>
     <detExit lane="E7_1" pos="50"/>
     <detExit lane="E7_2" pos="50"/>
     <detExit lane="E8_0" pos="50"/>
     <detExit lane="E8_1" pos="50"/>
     <detExit lane="E8_2" pos="50"/>
     <detExit lane="E8_3" pos="50"/>
     <detExit lane="E9_0" pos="50"/>
     <detExit lane="E9_1" pos="50"/>
     <detExit lane="E9_2" pos="50"/>
     <detExit lane="E6_0" pos="50"/>
     <detExit lane="E6_1" pos="50"/>
     <detExit lane="E6_2" pos="50"/>
     <detExit lane="E6_3" pos="50"/>
     <detExit lane="E3_0" pos="50"/>
     <detExit lane="E3_1" pos="50"/>
     <detExit lane="E3_2" pos="50"/>
  </entryExitDetector>

  <entryExitDetector id="LEFT_e3_det" freq="120" file="output/data_e3.xml">
     <detEntry lane="E0_0" pos="50"/>
     <detEntry lane="E0_1" pos="50"/>
     <detEntry lane="E0_2" pos="50"/>
     <detEntry lane="E0_3" pos="50"/>
     <detEntry lane="-E1_0" pos="50"/>
     <detEntry lane="-E1_1" pos="50"/>
     <detEntry lane="-E1_2" pos="50"/>     
     <detEntry lane="-E3_0" pos="50"/>
     <detEntry lane="-E3_1" pos="50"/>
     <detEntry lane="-E3_2" pos="50"/>
     <detEntry lane="-E2_0" pos="50"/>
     <detEntry lane="-E2_1" pos="50"/>
     <detEntry lane="-E2_2" pos="50"/>
     <detEntry lane="-E2_3" pos="50"/>

     <detExit lane="-E0_0" pos="50"/>
     <detExit lane="-E0_1" pos="50"/>
     <detExit lane="-E0_2" pos="50"/>
     <detExit lane="-E0_3" pos="50"/>
     <detExit lane="E1_0" pos="50"/>
     <detExit lane="E1_1" pos="50"/>
     <detExit lane="E1_2" pos="50"/>     
     <detExit lane="E3_0" pos="50"/>
     <detExit lane="E3_1" pos="50"/>
     <detExit lane="E3_2" pos="50"/>
     <detExit lane="E2_0" pos="50"/>
     <detExit lane="E2_1" pos="50"/>
     <detExit lane="E2_2" pos="50"/>
     <detExit lane="E2_3" pos="50"/>
  </entryExitDetector>

   <entryExitDetector id="MID_e3_det" freq="120" file="output/data_e3.xml">

     <detEntry lane="E2_0" pos="50"/>
     <detEntry lane="E2_1" pos="50"/>
     <detEntry lane="E2_2" pos="50"/>
     <detEntry lane="E2_3" pos="50"/>
     <detEntry lane="-E4_1" pos="50"/>
     <detEntry lane="-E4_2" pos="50"/>
     <detEntry lane="-E4_3" pos="50"/>
     <detEntry lane="-E5_0" pos="50"/>
     <detEntry lane="-E5_1" pos="50"/>
     <detEntry lane="-E5_2" pos="50"/>
     <detEntry lane="-E5_3" pos="50"/>
     <detEntry lane="-E6_0" pos="50"/>
     <detEntry lane="-E6_1" pos="50"/>
     <detEntry lane="-E6_2" pos="50"/>
     <detEntry lane="-E6_3" pos="50"/>

     <detExit lane="-E2_0" pos="50"/>
     <detExit lane="-E2_1" pos="50"/>
     <detExit lane="-E2_2" pos="50"/>
     <detExit lane="-E2_3" pos="50"/>
     <detExit lane="E4_0" pos="50"/>
     <detExit lane="E4_1" pos="50"/>
     <detExit lane="E4_2" pos="50"/>
     <detExit lane="E4_3" pos="50"/>
     <detExit lane="E5_0" pos="50"/>
     <detExit lane="E5_1" pos="50"/>
     <detExit lane="E5_2" pos="50"/>
     <detExit lane="E5_3" pos="50"/>
     <detExit lane="E6_0" pos="50"/>
     <detExit lane="E6_1" pos="50"/>
     <detExit lane="E6_2" pos="50"/>
     <detExit lane="E6_3" pos="50"/>
  </entryExitDetector>

   <entryExitDetector id="RIGHT_e3_det" freq="120" file="output/data_e3.xml">
     <detEntry lane="E5_0" pos="50"/>
     <detEntry lane="E5_1" pos="50"/>
     <detEntry lane="E5_2" pos="50"/>
     <detEntry lane="E5_3" pos="50"/>
     <detEntry lane="-E7_0" pos="50"/>
     <detEntry lane="-E7_1" pos="50"/>
     <detEntry lane="-E7_2" pos="50"/>
     <detEntry lane="-E8_0" pos="50"/>
     <detEntry lane="-E8_1" pos="50"/>
     <detEntry lane="-E8_2" pos="50"/>
     <detEntry lane="-E8_3" pos="50"/>
     <detEntry lane="-E9_0" pos="50"/>
     <detEntry lane="-E9_1" pos="50"/>
     <detEntry lane="-E9_2" pos="50"/>

     <detExit lane="-E5_0" pos="50"/>
     <detExit lane="-E5_1" pos="50"/>
     <detExit lane="-E5_2" pos="50"/>
     <detExit lane="-E5_3" pos="50"/>
     <detExit lane="E7_0" pos="50"/>
     <detExit lane="E7_1" pos="50"/>
     <detExit lane="E7_2" pos="50"/>
     <detExit lane="E8_0" pos="50"/>
     <detExit lane="E8_1" pos="50"/>
     <detExit lane="E8_2" pos="50"/>
     <detExit lane="E8_3" pos="50"/>
     <detExit lane="E9_0" pos="50"/>
     <detExit lane="E9_1" pos="50"/>
     <detExit lane="E9_2" pos="50"/>
  </entryExitDetector>

</additional>