<?xml version="1.0" encoding="UTF-8"?>

<!-- generated on 2023-08-17 20:22:17 by Eclipse SUMO netedit Version 1.18.0
<configuration xmlns:xsi="http://www.w3.org/2001/XMLSchema-instance" xsi:noNamespaceSchemaLocation="http://sumo.dlr.de/xsd/neteditConfiguration.xsd">

    <input>
        <sumo-net-file value="C:\Users\初名豪\Desktop\第四章\sumo\4.2主干路\example42.net.xml"/>
    </input>

    <output>
        <output-file value="C:\Users\初名豪\Desktop\第四章\sumo\4.2主干路\example42.net.xml"/>
    </output>

    <processing>
        <geometry.min-radius.fix.railways value="false"/>
        <geometry.max-grade.fix value="false"/>
        <offset.disable-normalization value="true"/>
        <lefthand value="0"/>
    </processing>

    <junctions>
        <no-internal-links value="false"/>
        <no-turnarounds value="true"/>
        <junctions.corner-detail value="5"/>
        <junctions.limit-turn-speed value="5.50"/>
        <rectangular-lane-cut value="0"/>
    </junctions>

    <pedestrian>
        <walkingareas value="0"/>
    </pedestrian>

</configuration>
-->

<net version="1.16" junctionCornerDetail="5" limitTurnSpeed="5.50" xmlns:xsi="http://www.w3.org/2001/XMLSchema-instance" xsi:noNamespaceSchemaLocation="http://sumo.dlr.de/xsd/net_file.xsd">

    <location netOffset="0.00,0.00" convBoundary="-779.85,-203.64,746.87,207.71" origBoundary="-10000000000.00,-10000000000.00,10000000000.00,10000000000.00" projParameter="!"/>

    <edge id=":J0_w0" function="walkingarea">
        <lane id=":J0_w0_0" index="0" allow="pedestrian" speed="2.78" length="29.00" width="5.00" shape="-779.85,-11.09 -779.85,-16.09 -779.85,17.91 -779.85,12.91"/>
    </edge>
    <edge id=":J1_0" function="internal">
        <lane id=":J1_0_0" index="0" allow="pedestrian moped bicycle" speed="7.14" length="6.27" width="5.00" shape="-411.61,21.91 -412.02,19.07 -413.24,17.04 -414.12,16.51"/>
    </edge>
    <edge id=":J1_1" function="internal">
        <lane id=":J1_1_0" index="0" allow="pedestrian moped bicycle" speed="13.89" length="42.01" width="5.00" shape="-411.61,21.91 -411.62,-20.10"/>
    </edge>
    <edge id=":J1_2" function="internal">
        <lane id=":J1_2_0" index="0" allow="private emergency authority army vip passenger hov taxi bus coach delivery truck trailer motorcycle evehicle custom1 custom2" speed="8.95" length="5.55" width="4.00" shape="-407.11,21.91 -407.80,17.10 -408.16,16.51"/>
    </edge>
    <edge id=":J1_3" function="internal">
        <lane id=":J1_3_0" index="0" allow="private emergency authority army vip passenger hov taxi bus coach delivery truck trailer motorcycle evehicle custom1 custom2" speed="13.89" length="42.01" width="4.00" shape="-403.11,21.91 -403.12,-20.10"/>
    </edge>
    <edge id=":J1_4" function="internal">
        <lane id=":J1_4_0" index="0" allow="private emergency authority army vip passenger hov taxi bus coach delivery truck trailer motorcycle evehicle custom1 custom2" speed="12.17" length="29.88" width="4.00" shape="-403.11,21.91 -401.93,11.85 -398.37,4.66 -392.43,0.34 -388.11,-0.40"/>
    </edge>
    <edge id=":J1_20" function="internal">
        <lane id=":J1_20_0" index="0" allow="pedestrian moped bicycle" speed="7.14" length="4.22" width="5.00" shape="-414.12,16.51 -415.27,15.82 -418.12,15.41"/>
    </edge>
    <edge id=":J1_21" function="internal">
        <lane id=":J1_21_0" index="0" allow="private emergency authority army vip passenger hov taxi bus coach delivery truck trailer motorcycle evehicle custom1 custom2" speed="8.95" length="12.20" width="4.00" shape="-408.16,16.51 -409.87,13.66 -413.30,11.60 -418.12,10.91"/>
    </edge>
    <edge id=":J1_22" function="internal">
        <lane id=":J1_22_0" index="0" allow="private emergency authority army vip passenger hov taxi bus coach delivery truck trailer motorcycle evehicle custom1 custom2" speed="12.17" length="4.06" width="4.00" shape="-388.11,-0.40 -384.11,-1.10"/>
    </edge>
    <edge id=":J1_5" function="internal">
        <lane id=":J1_5_0" index="0" allow="pedestrian moped bicycle" speed="7.14" length="6.27" width="5.00" shape="-384.10,15.40 -386.95,15.81 -388.99,17.03 -389.51,17.90"/>
    </edge>
    <edge id=":J1_6" function="internal">
        <lane id=":J1_6_0" index="0" allow="pedestrian moped bicycle" speed="13.89" length="34.01" width="5.00" shape="-384.10,15.40 -418.12,15.41"/>
    </edge>
    <edge id=":J1_7" function="internal">
        <lane id=":J1_7_0" index="0" allow="private emergency authority army vip passenger hov taxi bus coach delivery truck trailer motorcycle evehicle custom1 custom2" speed="8.95" length="5.55" width="4.00" shape="-384.11,10.90 -388.92,11.59 -389.51,11.94"/>
    </edge>
    <edge id=":J1_8" function="internal">
        <lane id=":J1_8_0" index="0" allow="private emergency authority army vip passenger hov taxi bus coach delivery truck trailer motorcycle evehicle custom1 custom2" speed="13.89" length="34.01" width="4.00" shape="-384.11,6.90 -418.12,6.91"/>
    </edge>
    <edge id=":J1_9" function="internal">
        <lane id=":J1_9_0" index="0" allow="private emergency authority army vip passenger hov taxi bus coach delivery truck trailer motorcycle evehicle custom1 custom2" speed="12.17" length="29.91" width="4.00" shape="-384.11,2.90 -392.43,1.47 -398.37,-2.84 -401.93,-10.03 -402.65,-16.10"/>
    </edge>
    <edge id=":J1_23" function="internal">
        <lane id=":J1_23_0" index="0" allow="pedestrian moped bicycle" speed="7.14" length="4.22" width="5.00" shape="-389.51,17.90 -390.21,19.06 -390.61,21.90"/>
    </edge>
    <edge id=":J1_24" function="internal">
        <lane id=":J1_24_0" index="0" allow="private emergency authority army vip passenger hov taxi bus coach delivery truck trailer motorcycle evehicle custom1 custom2" speed="8.95" length="12.20" width="4.00" shape="-389.51,11.94 -392.36,13.66 -394.43,17.09 -395.11,21.91"/>
    </edge>
    <edge id=":J1_25" function="internal">
        <lane id=":J1_25_0" index="0" allow="private emergency authority army vip passenger hov taxi bus coach delivery truck trailer motorcycle evehicle custom1 custom2" speed="12.17" length="4.03" width="4.00" shape="-402.65,-16.10 -403.12,-20.10"/>
    </edge>
    <edge id=":J1_10" function="internal">
        <lane id=":J1_10_0" index="0" allow="pedestrian moped bicycle" speed="7.13" length="6.26" width="5.00" shape="-390.62,-20.10 -390.21,-17.25 -388.99,-15.22 -388.12,-14.70"/>
    </edge>
    <edge id=":J1_11" function="internal">
        <lane id=":J1_11_0" index="0" allow="pedestrian moped bicycle" speed="13.89" length="42.00" width="5.00" shape="-390.62,-20.10 -390.61,21.90"/>
    </edge>
    <edge id=":J1_12" function="internal">
        <lane id=":J1_12_0" index="0" allow="private emergency authority army vip passenger hov taxi bus coach delivery truck trailer motorcycle evehicle custom1 custom2" speed="8.95" length="5.55" width="4.00" shape="-395.12,-20.10 -394.43,-15.28 -394.08,-14.69"/>
    </edge>
    <edge id=":J1_13" function="internal">
        <lane id=":J1_13_0" index="0" allow="private emergency authority army vip passenger hov taxi bus coach delivery truck trailer motorcycle evehicle custom1 custom2" speed="13.89" length="42.00" width="4.00" shape="-399.12,-20.10 -399.11,21.91"/>
    </edge>
    <edge id=":J1_14" function="internal">
        <lane id=":J1_14_0" index="0" allow="private emergency authority army vip passenger hov taxi bus coach delivery truck trailer motorcycle evehicle custom1 custom2" speed="12.17" length="29.87" width="4.00" shape="-399.12,-20.10 -400.31,-10.03 -403.87,-2.84 -409.81,1.47 -414.12,2.22"/>
    </edge>
    <edge id=":J1_26" function="internal">
        <lane id=":J1_26_0" index="0" allow="pedestrian moped bicycle" speed="7.13" length="4.22" width="5.00" shape="-388.12,-14.70 -386.96,-14.00 -384.12,-13.60"/>
    </edge>
    <edge id=":J1_27" function="internal">
        <lane id=":J1_27_0" index="0" allow="private emergency authority army vip passenger hov taxi bus coach delivery truck trailer motorcycle evehicle custom1 custom2" speed="8.95" length="12.19" width="4.00" shape="-394.08,-14.69 -392.37,-11.84 -388.93,-9.78 -384.11,-9.10"/>
    </edge>
    <edge id=":J1_28" function="internal">
        <lane id=":J1_28_0" index="0" allow="private emergency authority army vip passenger hov taxi bus coach delivery truck trailer motorcycle evehicle custom1 custom2" speed="12.17" length="4.06" width="4.00" shape="-414.12,2.22 -418.12,2.91"/>
    </edge>
    <edge id=":J1_15" function="internal">
        <lane id=":J1_15_0" index="0" allow="pedestrian moped bicycle" speed="7.14" length="6.27" width="5.00" shape="-418.12,-13.59 -415.27,-14.00 -413.24,-15.22 -412.71,-16.10"/>
    </edge>
    <edge id=":J1_16" function="internal">
        <lane id=":J1_16_0" index="0" allow="pedestrian moped bicycle" speed="13.89" length="34.00" width="5.00" shape="-418.12,-13.59 -384.12,-13.60"/>
    </edge>
    <edge id=":J1_17" function="internal">
        <lane id=":J1_17_0" index="0" allow="private emergency authority army vip passenger hov taxi bus coach delivery truck trailer motorcycle evehicle custom1 custom2" speed="8.95" length="5.55" width="4.00" shape="-418.12,-9.09 -413.31,-9.78 -412.72,-10.13"/>
    </edge>
    <edge id=":J1_18" function="internal">
        <lane id=":J1_18_0" index="0" allow="private emergency authority army vip passenger hov taxi bus coach delivery truck trailer motorcycle evehicle custom1 custom2" speed="13.89" length="34.00" width="4.00" shape="-418.12,-5.09 -384.11,-5.10"/>
    </edge>
    <edge id=":J1_19" function="internal">
        <lane id=":J1_19_0" index="0" allow="private emergency authority army vip passenger hov taxi bus coach delivery truck trailer motorcycle evehicle custom1 custom2" speed="12.17" length="29.90" width="4.00" shape="-418.12,-1.09 -409.81,0.35 -403.87,4.66 -400.30,11.85 -399.59,17.91"/>
    </edge>
    <edge id=":J1_29" function="internal">
        <lane id=":J1_29_0" index="0" allow="pedestrian moped bicycle" speed="7.14" length="4.22" width="5.00" shape="-412.71,-16.10 -412.02,-17.25 -411.62,-20.10"/>
    </edge>
    <edge id=":J1_30" function="internal">
        <lane id=":J1_30_0" index="0" allow="private emergency authority army vip passenger hov taxi bus coach delivery truck trailer motorcycle evehicle custom1 custom2" speed="8.95" length="12.20" width="4.00" shape="-412.72,-10.13 -409.87,-11.84 -407.81,-15.28 -407.12,-20.10"/>
    </edge>
    <edge id=":J1_31" function="internal">
        <lane id=":J1_31_0" index="0" allow="private emergency authority army vip passenger hov taxi bus coach delivery truck trailer motorcycle evehicle custom1 custom2" speed="12.17" length="4.03" width="4.00" shape="-399.59,17.91 -399.11,21.91"/>
    </edge>
    <edge id=":J1_c0" function="crossing" crossingEdges="E3 -E3">
        <lane id=":J1_c0_0" index="0" allow="pedestrian" speed="2.78" length="16.00" width="4.00" shape="-393.11,19.91 -409.11,19.91"/>
    </edge>
    <edge id=":J1_c1" function="crossing" crossingEdges="E2 -E2">
        <lane id=":J1_c1_0" index="0" allow="pedestrian" speed="2.78" length="24.00" width="4.00" shape="-386.12,-11.10 -386.10,12.90"/>
    </edge>
    <edge id=":J1_c2" function="crossing" crossingEdges="E1 -E1">
        <lane id=":J1_c2_0" index="0" allow="pedestrian" speed="2.78" length="16.00" width="4.00" shape="-409.12,-18.10 -393.12,-18.10"/>
    </edge>
    <edge id=":J1_c3" function="crossing" crossingEdges="-E0 E0">
        <lane id=":J1_c3_0" index="0" allow="pedestrian" speed="2.78" length="24.00" width="4.00" shape="-416.12,12.91 -416.12,-11.09"/>
    </edge>
    <edge id=":J1_w0" function="walkingarea">
        <lane id=":J1_w0_0" index="0" allow="pedestrian" speed="2.78" length="7.61" width="5.00" shape="-418.12,12.91 -418.12,17.91 -414.11,21.91 -409.11,21.91 -409.36,19.16 -410.12,16.91 -411.37,15.16 -413.12,13.91 -415.37,13.16"/>
    </edge>
    <edge id=":J1_w1" function="walkingarea">
        <lane id=":J1_w1_0" index="0" allow="pedestrian" speed="2.78" length="7.61" width="5.00" shape="-393.11,21.91 -388.11,21.90 -384.10,17.90 -384.10,12.90 -386.86,13.15 -389.11,13.90 -390.86,15.16 -392.11,16.91 -392.86,19.16"/>
    </edge>
    <edge id=":J1_w2" function="walkingarea">
        <lane id=":J1_w2_0" index="0" allow="pedestrian" speed="2.78" length="7.60" width="5.00" shape="-384.12,-11.10 -384.12,-16.10 -388.12,-20.10 -393.12,-20.10 -392.87,-17.35 -392.12,-15.10 -390.87,-13.35 -389.12,-12.10 -386.87,-11.35"/>
    </edge>
    <edge id=":J1_w3" function="walkingarea">
        <lane id=":J1_w3_0" index="0" allow="pedestrian" speed="2.78" length="7.61" width="5.00" shape="-409.12,-20.10 -414.12,-20.10 -418.12,-16.09 -418.12,-11.09 -415.37,-11.34 -413.12,-12.09 -411.37,-13.34 -410.12,-15.09 -409.37,-17.35"/>
    </edge>
    <edge id=":J10_w0" function="walkingarea">
        <lane id=":J10_w0_0" index="0" allow="pedestrian" speed="2.78" length="21.00" width="5.00" shape="396.32,207.71 391.32,207.72 417.32,207.70 412.32,207.71"/>
    </edge>
    <edge id=":J2_w0" function="walkingarea">
        <lane id=":J2_w0_0" index="0" allow="pedestrian" speed="2.78" length="21.00" width="5.00" shape="-393.09,-203.15 -388.09,-203.15 -414.09,-203.15 -409.09,-203.15"/>
    </edge>
    <edge id=":J3_0" function="internal">
        <lane id=":J3_0_0" index="0" allow="pedestrian moped bicycle" speed="7.14" length="6.28" width="5.00" shape="-12.98,21.76 -13.38,18.91 -14.60,16.87 -15.48,16.34"/>
    </edge>
    <edge id=":J3_1" function="internal">
        <lane id=":J3_1_0" index="0" allow="pedestrian moped bicycle" speed="13.89" length="42.03" width="5.00" shape="-12.98,21.76 -12.98,-20.27"/>
    </edge>
    <edge id=":J3_2" function="internal">
        <lane id=":J3_2_0" index="0" allow="private emergency authority army vip passenger hov taxi bus coach delivery truck trailer motorcycle evehicle custom1 custom2" speed="8.95" length="5.55" width="4.00" shape="-8.48,21.76 -9.17,16.93 -9.52,16.35"/>
    </edge>
    <edge id=":J3_3" function="internal">
        <lane id=":J3_3_0" index="0" allow="private emergency authority army vip passenger hov taxi bus coach delivery truck trailer motorcycle evehicle custom1 custom2" speed="13.89" length="42.02" width="4.00" shape="-4.48,21.75 -4.48,-20.27"/>
    </edge>
    <edge id=":J3_4" function="internal">
        <lane id=":J3_4_0" index="0" allow="private emergency authority army vip passenger hov taxi bus coach delivery truck trailer motorcycle evehicle custom1 custom2" speed="12.70" length="33.07" width="4.00" shape="-0.48,21.75 0.96,11.68 5.27,4.49 12.46,0.17 18.53,-0.69"/>
    </edge>
    <edge id=":J3_20" function="internal">
        <lane id=":J3_20_0" index="0" allow="pedestrian moped bicycle" speed="7.14" length="4.22" width="5.00" shape="-15.48,16.34 -16.64,15.65 -19.48,15.24"/>
    </edge>
    <edge id=":J3_21" function="internal">
        <lane id=":J3_21_0" index="0" allow="private emergency authority army vip passenger hov taxi bus coach delivery truck trailer motorcycle evehicle custom1 custom2" speed="8.95" length="12.20" width="4.00" shape="-9.52,16.35 -11.23,13.49 -14.67,11.43 -19.48,10.74"/>
    </edge>
    <edge id=":J3_22" function="internal">
        <lane id=":J3_22_0" index="0" allow="private emergency authority army vip passenger hov taxi bus coach delivery truck trailer motorcycle evehicle custom1 custom2" speed="12.70" length="4.04" width="4.00" shape="18.53,-0.69 22.53,-1.26"/>
    </edge>
    <edge id=":J3_5" function="internal">
        <lane id=":J3_5_0" index="0" allow="pedestrian moped bicycle" speed="7.13" length="6.26" width="5.00" shape="22.52,15.24 19.68,15.64 17.65,16.86 17.12,17.74"/>
    </edge>
    <edge id=":J3_6" function="internal">
        <lane id=":J3_6_0" index="0" allow="pedestrian moped bicycle" speed="13.89" length="42.00" width="5.00" shape="22.52,15.24 -19.48,15.24"/>
    </edge>
    <edge id=":J3_7" function="internal">
        <lane id=":J3_7_0" index="0" allow="private emergency authority army vip passenger hov taxi bus coach delivery truck trailer motorcycle evehicle custom1 custom2" speed="8.94" length="5.55" width="4.00" shape="22.52,10.74 17.71,11.42 17.12,11.78"/>
    </edge>
    <edge id=":J3_8" function="internal">
        <lane id=":J3_8_0" index="0" allow="private emergency authority army vip passenger hov taxi bus coach delivery truck trailer motorcycle evehicle custom1 custom2" speed="13.89" length="42.01" width="4.00" shape="22.53,6.74 -19.48,6.74"/>
    </edge>
    <edge id=":J3_9" function="internal">
        <lane id=":J3_9_0" index="0" allow="private emergency authority army vip passenger hov taxi bus coach delivery truck trailer motorcycle evehicle custom1 custom2" speed="12.71" length="33.07" width="4.00" shape="22.53,2.74 12.46,1.30 5.27,-3.02 0.95,-10.21 0.09,-16.27"/>
    </edge>
    <edge id=":J3_23" function="internal">
        <lane id=":J3_23_0" index="0" allow="pedestrian moped bicycle" speed="7.13" length="4.22" width="5.00" shape="17.12,17.74 16.43,18.89 16.02,21.74"/>
    </edge>
    <edge id=":J3_24" function="internal">
        <lane id=":J3_24_0" index="0" allow="private emergency authority army vip passenger hov taxi bus coach delivery truck trailer motorcycle evehicle custom1 custom2" speed="8.94" length="12.19" width="4.00" shape="17.12,11.78 14.27,13.49 12.21,16.93 11.52,21.74"/>
    </edge>
    <edge id=":J3_25" function="internal">
        <lane id=":J3_25_0" index="0" allow="private emergency authority army vip passenger hov taxi bus coach delivery truck trailer motorcycle evehicle custom1 custom2" speed="12.71" length="4.04" width="4.00" shape="0.09,-16.27 -0.48,-20.27"/>
    </edge>
    <edge id=":J3_10" function="internal">
        <lane id=":J3_10_0" index="0" allow="pedestrian moped bicycle" speed="7.14" length="6.28" width="5.00" shape="16.02,-20.26 16.42,-17.42 17.64,-15.39 18.53,-14.86"/>
    </edge>
    <edge id=":J3_11" function="internal">
        <lane id=":J3_11_0" index="0" allow="pedestrian moped bicycle" speed="13.89" length="42.00" width="5.00" shape="16.02,-20.26 16.02,21.74"/>
    </edge>
    <edge id=":J3_12" function="internal">
        <lane id=":J3_12_0" index="0" allow="private emergency authority army vip passenger hov taxi bus coach delivery truck trailer motorcycle evehicle custom1 custom2" speed="8.95" length="5.55" width="4.00" shape="11.52,-20.27 12.20,-15.45 12.56,-14.86"/>
    </edge>
    <edge id=":J3_13" function="internal">
        <lane id=":J3_13_0" index="0" allow="private emergency authority army vip passenger hov taxi bus coach delivery truck trailer motorcycle evehicle custom1 custom2" speed="13.89" length="42.01" width="4.00" shape="7.52,-20.27 7.52,21.74"/>
    </edge>
    <edge id=":J3_14" function="internal">
        <lane id=":J3_14_0" index="0" allow="private emergency authority army vip passenger hov taxi bus coach delivery truck trailer motorcycle evehicle custom1 custom2" speed="12.71" length="33.05" width="4.00" shape="3.52,-20.27 2.08,-10.21 -2.24,-3.02 -9.42,1.30 -15.49,2.17"/>
    </edge>
    <edge id=":J3_26" function="internal">
        <lane id=":J3_26_0" index="0" allow="pedestrian moped bicycle" speed="7.14" length="4.22" width="5.00" shape="18.53,-14.86 19.68,-14.17 22.53,-13.76"/>
    </edge>
    <edge id=":J3_27" function="internal">
        <lane id=":J3_27_0" index="0" allow="private emergency authority army vip passenger hov taxi bus coach delivery truck trailer motorcycle evehicle custom1 custom2" speed="8.95" length="12.21" width="4.00" shape="12.56,-14.86 14.27,-12.01 17.71,-9.95 22.53,-9.26"/>
    </edge>
    <edge id=":J3_28" function="internal">
        <lane id=":J3_28_0" index="0" allow="private emergency authority army vip passenger hov taxi bus coach delivery truck trailer motorcycle evehicle custom1 custom2" speed="12.71" length="4.04" width="4.00" shape="-15.49,2.17 -19.49,2.74"/>
    </edge>
    <edge id=":J3_15" function="internal">
        <lane id=":J3_15_0" index="0" allow="pedestrian moped bicycle" speed="7.14" length="6.28" width="5.00" shape="-19.49,-13.76 -16.65,-14.17 -14.61,-15.39 -14.08,-16.27"/>
    </edge>
    <edge id=":J3_16" function="internal">
        <lane id=":J3_16_0" index="0" allow="pedestrian moped bicycle" speed="13.89" length="42.03" width="5.00" shape="-19.49,-13.76 22.53,-13.76"/>
    </edge>
    <edge id=":J3_17" function="internal">
        <lane id=":J3_17_0" index="0" allow="private emergency authority army vip passenger hov taxi bus coach delivery truck trailer motorcycle evehicle custom1 custom2" speed="8.95" length="5.55" width="4.00" shape="-19.49,-9.26 -14.68,-9.95 -14.09,-10.30"/>
    </edge>
    <edge id=":J3_18" function="internal">
        <lane id=":J3_18_0" index="0" allow="private emergency authority army vip passenger hov taxi bus coach delivery truck trailer motorcycle evehicle custom1 custom2" speed="13.89" length="42.02" width="4.00" shape="-19.49,-5.26 22.53,-5.26"/>
    </edge>
    <edge id=":J3_19" function="internal">
        <lane id=":J3_19_0" index="0" allow="private emergency authority army vip passenger hov taxi bus coach delivery truck trailer motorcycle evehicle custom1 custom2" speed="12.71" length="33.07" width="4.00" shape="-19.49,-1.26 -9.43,0.17 -2.24,4.49 2.08,11.68 2.95,17.75"/>
    </edge>
    <edge id=":J3_29" function="internal">
        <lane id=":J3_29_0" index="0" allow="pedestrian moped bicycle" speed="7.14" length="4.22" width="5.00" shape="-14.08,-16.27 -13.39,-17.42 -12.98,-20.27"/>
    </edge>
    <edge id=":J3_30" function="internal">
        <lane id=":J3_30_0" index="0" allow="private emergency authority army vip passenger hov taxi bus coach delivery truck trailer motorcycle evehicle custom1 custom2" speed="8.95" length="12.21" width="4.00" shape="-14.09,-10.30 -11.24,-12.02 -9.17,-15.46 -8.48,-20.27"/>
    </edge>
    <edge id=":J3_31" function="internal">
        <lane id=":J3_31_0" index="0" allow="private emergency authority army vip passenger hov taxi bus coach delivery truck trailer motorcycle evehicle custom1 custom2" speed="12.71" length="4.04" width="4.00" shape="2.95,17.75 3.52,21.75"/>
    </edge>
    <edge id=":J3_c0" function="crossing" crossingEdges="E6 -E6">
        <lane id=":J3_c0_0" index="0" allow="pedestrian" speed="2.78" length="24.00" width="4.00" shape="13.52,19.74 -10.48,19.76"/>
    </edge>
    <edge id=":J3_c1" function="crossing" crossingEdges="E5 -E5">
        <lane id=":J3_c1_0" index="0" allow="pedestrian" speed="2.78" length="24.00" width="4.00" shape="20.53,-11.26 20.52,12.74"/>
    </edge>
    <edge id=":J3_c2" function="crossing" crossingEdges="E4 -E4">
        <lane id=":J3_c2_0" index="0" allow="pedestrian" speed="2.78" length="24.00" width="4.00" shape="-10.48,-18.27 13.52,-18.26"/>
    </edge>
    <edge id=":J3_c3" function="crossing" crossingEdges="-E2 E2">
        <lane id=":J3_c3_0" index="0" allow="pedestrian" speed="2.78" length="24.00" width="4.00" shape="-17.48,12.74 -17.49,-11.26"/>
    </edge>
    <edge id=":J3_w0" function="walkingarea">
        <lane id=":J3_w0_0" index="0" allow="pedestrian" speed="2.78" length="7.61" width="5.00" shape="-19.48,12.74 -19.48,17.74 -15.48,21.76 -10.48,21.76 -10.73,19.00 -11.48,16.75 -12.73,14.99 -14.48,13.74 -16.73,12.99"/>
    </edge>
    <edge id=":J3_w1" function="walkingarea">
        <lane id=":J3_w1_0" index="0" allow="pedestrian" speed="2.78" length="7.60" width="5.00" shape="13.52,21.74 18.52,21.74 22.52,17.74 22.52,12.74 19.77,12.99 17.52,13.74 15.77,14.99 14.52,16.74 13.77,18.99"/>
    </edge>
    <edge id=":J3_w2" function="walkingarea">
        <lane id=":J3_w2_0" index="0" allow="pedestrian" speed="2.78" length="7.61" width="5.00" shape="22.53,-11.26 22.54,-16.26 18.52,-20.26 13.52,-20.26 13.77,-17.51 14.52,-15.26 15.77,-13.51 17.52,-12.26 19.78,-11.51"/>
    </edge>
    <edge id=":J3_w3" function="walkingarea">
        <lane id=":J3_w3_0" index="0" allow="pedestrian" speed="2.78" length="7.61" width="5.00" shape="-10.48,-20.27 -15.48,-20.27 -19.49,-16.26 -19.49,-11.26 -16.74,-11.51 -14.49,-12.26 -12.74,-13.52 -11.49,-15.27 -10.73,-17.52"/>
    </edge>
    <edge id=":J4_w0" function="walkingarea">
        <lane id=":J4_w0_0" index="0" allow="pedestrian" speed="2.78" length="21.00" width="5.00" shape="-409.06,202.60 -414.06,202.60 -388.06,202.60 -393.06,202.60"/>
    </edge>
    <edge id=":J5_w0" function="walkingarea">
        <lane id=":J5_w0_0" index="0" allow="pedestrian" speed="2.78" length="29.00" width="5.00" shape="13.57,-200.53 18.57,-200.52 -15.43,-200.54 -10.43,-200.53"/>
    </edge>
    <edge id=":J6_0" function="internal">
        <lane id=":J6_0_0" index="0" allow="pedestrian moped bicycle" speed="7.14" length="6.28" width="5.00" shape="393.75,21.89 393.34,19.05 392.12,17.01 391.23,16.48"/>
    </edge>
    <edge id=":J6_1" function="internal">
        <lane id=":J6_1_0" index="0" allow="pedestrian moped bicycle" speed="13.89" length="42.01" width="5.00" shape="393.75,21.89 393.74,-20.12"/>
    </edge>
    <edge id=":J6_2" function="internal">
        <lane id=":J6_2_0" index="0" allow="private emergency authority army vip passenger hov taxi bus coach delivery truck trailer motorcycle evehicle custom1 custom2" speed="8.95" length="5.55" width="4.00" shape="398.25,21.89 397.56,17.08 397.21,16.49"/>
    </edge>
    <edge id=":J6_3" function="internal">
        <lane id=":J6_3_0" index="0" allow="private emergency authority army vip passenger hov taxi bus coach delivery truck trailer motorcycle evehicle custom1 custom2" speed="13.89" length="42.01" width="4.00" shape="402.25,21.89 402.24,-20.12"/>
    </edge>
    <edge id=":J6_4" function="internal">
        <lane id=":J6_4_0" index="0" allow="private emergency authority army vip passenger hov taxi bus coach delivery truck trailer motorcycle evehicle custom1 custom2" speed="12.17" length="29.88" width="4.00" shape="402.25,21.89 403.43,11.83 406.99,4.64 412.93,0.32 417.25,-0.43"/>
    </edge>
    <edge id=":J6_20" function="internal">
        <lane id=":J6_20_0" index="0" allow="pedestrian moped bicycle" speed="7.14" length="4.22" width="5.00" shape="391.23,16.48 390.08,15.79 387.23,15.38"/>
    </edge>
    <edge id=":J6_21" function="internal">
        <lane id=":J6_21_0" index="0" allow="private emergency authority army vip passenger hov taxi bus coach delivery truck trailer motorcycle evehicle custom1 custom2" speed="8.95" length="12.21" width="4.00" shape="397.21,16.49 395.49,13.64 392.05,11.57 387.23,10.88"/>
    </edge>
    <edge id=":J6_22" function="internal">
        <lane id=":J6_22_0" index="0" allow="private emergency authority army vip passenger hov taxi bus coach delivery truck trailer motorcycle evehicle custom1 custom2" speed="12.17" length="4.06" width="4.00" shape="417.25,-0.43 421.25,-1.12"/>
    </edge>
    <edge id=":J6_5" function="internal">
        <lane id=":J6_5_0" index="0" allow="pedestrian moped bicycle" speed="7.14" length="6.27" width="5.00" shape="421.26,15.38 418.41,15.79 416.37,17.01 415.85,17.88"/>
    </edge>
    <edge id=":J6_6" function="internal">
        <lane id=":J6_6_0" index="0" allow="pedestrian moped bicycle" speed="13.89" length="34.03" width="5.00" shape="421.26,15.38 387.23,15.38"/>
    </edge>
    <edge id=":J6_7" function="internal">
        <lane id=":J6_7_0" index="0" allow="private emergency authority army vip passenger hov taxi bus coach delivery truck trailer motorcycle evehicle custom1 custom2" speed="8.95" length="5.55" width="4.00" shape="421.26,10.88 416.44,11.57 415.85,11.92"/>
    </edge>
    <edge id=":J6_8" function="internal">
        <lane id=":J6_8_0" index="0" allow="private emergency authority army vip passenger hov taxi bus coach delivery truck trailer motorcycle evehicle custom1 custom2" speed="13.89" length="34.02" width="4.00" shape="421.25,6.88 387.23,6.88"/>
    </edge>
    <edge id=":J6_9" function="internal">
        <lane id=":J6_9_0" index="0" allow="private emergency authority army vip passenger hov taxi bus coach delivery truck trailer motorcycle evehicle custom1 custom2" speed="12.17" length="29.91" width="4.00" shape="421.25,2.88 412.93,1.45 406.99,-2.86 403.43,-10.05 402.71,-16.12"/>
    </edge>
    <edge id=":J6_23" function="internal">
        <lane id=":J6_23_0" index="0" allow="pedestrian moped bicycle" speed="7.14" length="4.22" width="5.00" shape="415.85,17.88 415.15,19.04 414.75,21.88"/>
    </edge>
    <edge id=":J6_24" function="internal">
        <lane id=":J6_24_0" index="0" allow="private emergency authority army vip passenger hov taxi bus coach delivery truck trailer motorcycle evehicle custom1 custom2" speed="8.95" length="12.20" width="4.00" shape="415.85,11.92 413.00,13.63 410.93,17.07 410.25,21.89"/>
    </edge>
    <edge id=":J6_25" function="internal">
        <lane id=":J6_25_0" index="0" allow="private emergency authority army vip passenger hov taxi bus coach delivery truck trailer motorcycle evehicle custom1 custom2" speed="12.17" length="4.03" width="4.00" shape="402.71,-16.12 402.24,-20.12"/>
    </edge>
    <edge id=":J6_10" function="internal">
        <lane id=":J6_10_0" index="0" allow="pedestrian moped bicycle" speed="7.13" length="6.26" width="5.00" shape="414.74,-20.12 415.15,-17.27 416.37,-15.24 417.24,-14.72"/>
    </edge>
    <edge id=":J6_11" function="internal">
        <lane id=":J6_11_0" index="0" allow="pedestrian moped bicycle" speed="13.89" length="42.00" width="5.00" shape="414.74,-20.12 414.75,21.88"/>
    </edge>
    <edge id=":J6_12" function="internal">
        <lane id=":J6_12_0" index="0" allow="private emergency authority army vip passenger hov taxi bus coach delivery truck trailer motorcycle evehicle custom1 custom2" speed="8.95" length="5.55" width="4.00" shape="410.24,-20.12 410.93,-15.30 411.28,-14.71"/>
    </edge>
    <edge id=":J6_13" function="internal">