<routes>
    <vType id="vt_car"   vClass="passenger" accel="2.6" decel="4.5" sigma="0.5" laneChangeModel="LC2013" maxSpeed="15" color="1,1,0" minGap="2.5"/>
    <vType id="vt_truck" vClass="truck"     accel="2.6" decel="4.5" sigma="0.5" laneChangeModel="LC2013" maxSpeed="11" color="1,0,0" minGap="2.5"/>
    
  <interval begin="0" end="900">

    <vTypeDistribution id="vtd_yuanlinlu_east_T1"  vTypes="vt_car vt_truck" probabilities="0.913 0.087"/>
    <vTypeDistribution id="vtd_yuanlinlu_west_T1"  vTypes="vt_car vt_truck" probabilities="0.935 0.065"/>
    <vTypeDistribution id="vtd_xingminlu_north_T1" vTypes="vt_car vt_truck" probabilities="0.952 0.048"/>
    <vTypeDistribution id="vtd_xingminlu_south_T1" vTypes="vt_car vt_truck" probabilities="0.909 0.091"/>
    <vTypeDistribution id="vtd_fukanglu_north_T1"  vTypes="vt_car vt_truck" probabilities="0.900 0.100"/>
    <vTypeDistribution id="vtd_fukanglu_south_T1"  vTypes="vt_car vt_truck" probabilities="0.900 0.100"/>
    <vTypeDistribution id="vtd_feitianlu_north_T1" vTypes="vt_car vt_truck" probabilities="0.933 0.067"/>
    <vTypeDistribution id="vtd_feitianlu_south_T1" vTypes="vt_car vt_truck" probabilities="0.900 0.100"/>

		<flow id="yuanlinlu_east_T1"  from="E0"  departLane="best" vehsPerHour="1200" type="vtd_yuanlinlu_east_T1"/>
		<flow id="yuanlinlu_west_T1"  from="-E8" departLane="best" vehsPerHour="856" type="vtd_yuanlinlu_west_T1"/>
		<flow id="xingminlu_north_T1" from="-E3" departLane="best" vehsPerHour="84" type="vtd_xingminlu_north_T1"/>
		<flow id="xingminlu_south_T1" from="-E1" departLane="best" vehsPerHour="176" type="vtd_xingminlu_south_T1"/>
		<flow id="fukanglu_north_T1"  from="-E6" departLane="best" vehsPerHour="240" type="vtd_fukanglu_north_T1"/>
		<flow id="fukanglu_south_T1"  from="-E4" departLane="best" vehsPerHour="160" type="vtd_fukanglu_south_T1"/>
		<flow id="feitianlu_north_T1" from="-E9" departLane="best" vehsPerHour="180" type="vtd_feitianlu_north_T1"/>
		<flow id="feitianlu_south_T1" from="-E7" departLane="best" vehsPerHour="160" type="vtd_feitianlu_south_T1"/>

	</interval>

  <interval begin="900" end="1800">

    <vTypeDistribution id="vtd_yuanlinlu_east_T2"  vTypes="vt_car vt_truck" probabilities="0.896 0.104"/>
    <vTypeDistribution id="vtd_yuanlinlu_west_T2"  vTypes="vt_car vt_truck" probabilities="0.917 0.083"/>
    <vTypeDistribution id="vtd_xingminlu_north_T2" vTypes="vt_car vt_truck" probabilities="0.958 0.042"/>
    <vTypeDistribution id="vtd_xingminlu_south_T2" vTypes="vt_car vt_truck" probabilities="0.911 0.089"/>
    <vTypeDistribution id="vtd_fukanglu_north_T2"  vTypes="vt_car vt_truck" probabilities="0.915 0.085"/>
    <vTypeDistribution id="vtd_fukanglu_south_T2"  vTypes="vt_car vt_truck" probabilities="0.927 0.073"/>
    <vTypeDistribution id="vtd_feitianlu_north_T2" vTypes="vt_car vt_truck" probabilities="0.937 0.063"/>
    <vTypeDistribution id="vtd_feitianlu_south_T2" vTypes="vt_car vt_truck" probabilities="0.913 0.087"/>

		<flow id="yuanlinlu_east_T2"  from="E0"  departLane="best" vehsPerHour="1000" type="vtd_yuanlinlu_east_T2"/>
		<flow id="yuanlinlu_west_T2"  from="-E8" departLane="best" vehsPerHour="920" type="vtd_yuanlinlu_west_T2"/>
		<flow id="xingminlu_north_T2" from="-E3" departLane="best" vehsPerHour="96" type="vtd_xingminlu_north_T2"/>
		<flow id="xingminlu_south_T2" from="-E1" departLane="best" vehsPerHour="180" type="vtd_xingminlu_south_T2"/>
		<flow id="fukanglu_north_T2"  from="-E6" departLane="best" vehsPerHour="328" type="vtd_fukanglu_north_T2"/>
		<flow id="fukanglu_south_T2"  from="-E4" departLane="best" vehsPerHour="220" type="vtd_fukanglu_south_T2"/>
		<flow id="feitianlu_north_T2" from="-E9" departLane="best" vehsPerHour="192" type="vtd_feitianlu_north_T2"/>
		<flow id="feitianlu_south_T2" from="-E7" departLane="best" vehsPerHour="184" type="vtd_feitianlu_south_T2"/>

	</interval>

  <interval begin="1800" end="2700">

    <vTypeDistribution id="vtd_yuanlinlu_east_T3"  vTypes="vt_car vt_truck" probabilities="0.911 0.089"/>
    <vTypeDistribution id="vtd_yuanlinlu_west_T3"  vTypes="vt_car vt_truck" probabilities="0.910 0.090"/>
    <vTypeDistribution id="vtd_xingminlu_north_T3" vTypes="vt_car vt_truck" probabilities="0.952 0.048"/>
    <vTypeDistribution id="vtd_xingminlu_south_T3" vTypes="vt_car vt_truck" probabilities="0.900 0.100"/>
    <vTypeDistribution id="vtd_fukanglu_north_T3"  vTypes="vt_car vt_truck" probabilities="0.909 0.091"/>
    <vTypeDistribution id="vtd_fukanglu_south_T3"  vTypes="vt_car vt_truck" probabilities="0.917 0.083"/>
    <vTypeDistribution id="vtd_feitianlu_north_T3" vTypes="vt_car vt_truck" probabilities="0.913 0.087"/>
    <vTypeDistribution id="vtd_feitianlu_south_T3" vTypes="vt_car vt_truck" probabilities="0.930 0.070"/>

		<flow id="yuanlinlu_east_T3"  from="E0"  departLane="best" vehsPerHour="1120" type="vtd_yuanlinlu_east_T3"/>
		<flow id="yuanlinlu_west_T3"  from="-E8" departLane="best" vehsPerHour="848" type="vtd_yuanlinlu_west_T3"/>
		<flow id="xingminlu_north_T3" from="-E3" departLane="best" vehsPerHour="168" type="vtd_xingminlu_north_T3"/>
		<flow id="xingminlu_south_T3" from="-E1" departLane="best" vehsPerHour="240" type="vtd_xingminlu_south_T3"/>
		<flow id="fukanglu_north_T3"  from="-E6" departLane="best" vehsPerHour="220" type="vtd_fukanglu_north_T3"/>
		<flow id="fukanglu_south_T3"  from="-E4" departLane="best" vehsPerHour="192" type="vtd_fukanglu_south_T3"/>
		<flow id="feitianlu_north_T3" from="-E9" departLane="best" vehsPerHour="184" type="vtd_feitianlu_north_T3"/>
		<flow id="feitianlu_south_T3" from="-E7" departLane="best" vehsPerHour="172" type="vtd_feitianlu_south_T3"/>

	</interval>

  <interval begin="2700" end="3600">

    <vTypeDistribution id="vtd_yuanlinlu_east_T4"  vTypes="vt_car vt_truck" probabilities="0.902 0.098"/>
    <vTypeDistribution id="vtd_yuanlinlu_west_T4"  vTypes="vt_car vt_truck" probabilities="0.908 0.092"/>
    <vTypeDistribution id="vtd_xingminlu_north_T4" vTypes="vt_car vt_truck" probabilities="0.912 0.088"/>
    <vTypeDistribution id="vtd_xingminlu_south_T4" vTypes="vt_car vt_truck" probabilities="0.917 0.083"/>
    <vTypeDistribution id="vtd_fukanglu_north_T4"  vTypes="vt_car vt_truck" probabilities="0.932 0.068"/>
    <vTypeDistribution id="vtd_fukanglu_south_T4"  vTypes="vt_car vt_truck" probabilities="0.927 0.073"/>
    <vTypeDistribution id="vtd_feitianlu_north_T4" vTypes="vt_car vt_truck" probabilities="0.911 0.089"/>
    <vTypeDistribution id="vtd_feitianlu_south_T4" vTypes="vt_car vt_truck" probabilities="0.921 0.079"/>

		<flow id="yuanlinlu_east_T4"  from="E0"  departLane="best" vehsPerHour="1056" type="vtd_yuanlinlu_east_T4"/>
		<flow id="yuanlinlu_west_T4"  from="-E8" departLane="best" vehsPerHour="872" type="vtd_yuanlinlu_west_T4"/>
		<flow id="xingminlu_north_T4" from="-E3" departLane="best" vehsPerHour="136" type="vtd_xingminlu_north_T4"/>
		<flow id="xingminlu_south_T4" from="-E1" departLane="best" vehsPerHour="144" type="vtd_xingminlu_south_T4"/>
		<flow id="fukanglu_north_T4"  from="-E6" departLane="best" vehsPerHour="176" type="vtd_fukanglu_north_T4"/>
		<flow id="fukanglu_south_T4"  from="-E4" departLane="best" vehsPerHour="164" type="vtd_fukanglu_south_T4"/>
		<flow id="feitianlu_north_T4" from="-E9" departLane="best" vehsPerHour="224" type="vtd_feitianlu_north_T4"/>
		<flow id="feitianlu_south_T4" from="-E7" departLane="best" vehsPerHour="152" type="vtd_feitianlu_south_T4"/>

	</interval>
</routes>