<routes>
  <personFlow id="walk1" depart="0" number="30">
    <walk from="-E1" to="E9" arrivalPos="random"/>
  </personFlow>

  <personFlow id="bus1" depart="0" color="1,0,1" period="10">
    <walk from="E0" busStop="ertongleyuan_south"/>
    <ride to="E5" lines="WToE"/>  
    <walk to="-E5" busStop="zhiwuyuan_north"/>
    <ride to="E3" lines="DOWN2UP"/>  
    <walk to="E3" arrivalPos="max"/>
  </personFlow>

  <personFlow id="bus2" depart="0" number="10">
    <walk from="E0" busStop="ertongleyuan_south"/>
    <ride to="E8" lines="WToE"/>  
    <walk to="E8" arrivalPos="random"/>
  </personFlow>

  <personFlow id="walk2" depart="0" number="30">
    <walk from="-E9"  to="E6" arrivalPos="random"/>
  </personFlow>

  <personFlow id="walk3" depart="0" number="80">
    <walk from="-E4"  to="E6" arrivalPos="random"/>
  </personFlow>

  <vType id="vt_p" length="2" maxSpeed="5" vClass="moped" color="1,1,1"/>
  <personFlow id="walk4" depart="0" type="vt_p" number="80">
    <walk from="-E6"  to="E4" arrivalPos="random"/>
  </personFlow>

</routes>
