<?xml version="1.0" encoding="UTF-8"?>

<!-- generated on 2024-01-12 13:49:10 by Eclipse SUMO jtrrouter Version 1.19.0
This data file and the accompanying materials
are made available under the terms of the Eclipse Public License v2.0
which accompanies this distribution, and is available at
http://www.eclipse.org/legal/epl-v20.html
This file may also be made available under the following Secondary
Licenses when the conditions for such availability set forth in the Eclipse
Public License 2.0 are satisfied: GNU General Public License, version 2
or later which is available at
https://www.gnu.org/licenses/old-licenses/gpl-2.0-standalone.html
SPDX-License-Identifier: EPL-2.0 OR GPL-2.0-or-later
<configuration xmlns:xsi="http://www.w3.org/2001/XMLSchema-instance" xsi:noNamespaceSchemaLocation="http://sumo.dlr.de/xsd/jtrrouterConfiguration.xsd">

    <input>
        <net-file value="example42.net.xml"/>
        <route-files value="example42.flows.xml"/>
        <turn-ratio-files value="example42.turns.xml"/>
    </input>

    <output>
        <output-file value="example42.rou.xml"/>
        <write-license value="true"/>
    </output>

    <processing>
        <accept-all-destinations value="true"/>
        <sources-are-sinks value="true"/>
    </processing>

    <report>
        <ignore-errors value="true"/>
        <no-step-log value="true"/>
    </report>

</configuration>
-->

<routes xmlns:xsi="http://www.w3.org/2001/XMLSchema-instance" xsi:noNamespaceSchemaLocation="http://sumo.dlr.de/xsd/routes_file.xsd">
    <vType id="vt_car" minGap="2.50" maxSpeed="15.00" vClass="passenger" color="yellow" laneChangeModel="LC2013" accel="2.6" decel="4.5" sigma="0.5"/>
    <vehicle id="feitianlu_north_T1.0" type="vt_car" depart="0.00" departLane="best">
        <route edges="-E9 E8"/>
    </vehicle>
    <vehicle id="feitianlu_south_T1.0" type="vt_car" depart="0.00" departLane="best">
        <route edges="-E15 E19"/>
    </vehicle>
    <vehicle id="fukanglu_north_T1.0" type="vt_car" depart="0.00" departLane="best">
        <route edges="-E6 E5 E8"/>
    </vehicle>
    <vehicle id="fukanglu_south_T1.0" type="vt_car" depart="0.00" departLane="best">
        <route edges="-E13 -E12 -E4 E6"/>
    </vehicle>
    <vehicle id="xingminlu_north_T1.0" type="vt_car" depart="0.00" departLane="best">
        <route edges="-E3 E2 E5 E7 E14 E15"/>
    </vehicle>
    <vehicle id="xingminlu_south_T1.0" type="vt_car" depart="0.00" departLane="best">
        <route edges="-E11 -E10 -E1 E3"/>
    </vehicle>
    <vehicle id="yuanlinlu_east.0" type="vt_car" depart="0.00" departLane="best">
        <route edges="E16 -E10 -E1 -E0"/>
    </vehicle>
    <vehicle id="yuanlinlu_east_T1.0" type="vt_car" depart="0.00" departLane="best">
        <route edges="E0 E2 E4 E12 E18 E19"/>
    </vehicle>
    <vehicle id="yuanlinlu_west.0" type="vt_car" depart="0.00" departLane="best">
        <route edges="-E19 -E18 -E17 E11"/>
    </vehicle>
    <vehicle id="yuanlinlu_west_T1.0" type="vt_car" depart="0.00" departLane="best">
        <route edges="-E8 E9"/>
    </vehicle>
    <vehicle id="yuanlinlu_east.1" type="vt_car" depart="3.00" departLane="best">
        <route edges="E16 E17 -E12 -E4 E5 E8"/>
    </vehicle>
    <vehicle id="yuanlinlu_east_T1.1" type="vt_car" depart="3.00" departLane="best">
        <route edges="E0 E1 E10 E17 -E12 -E4 -E2 -E0"/>
    </vehicle>
    <vehicle id="yuanlinlu_west.1" type="vt_car" depart="4.21" departLane="best">
        <route edges="-E19 -E18 -E17 E11"/>
    </vehicle>
    <vehicle id="yuanlinlu_west_T1.1" type="vt_car" depart="4.21" departLane="best">
        <route edges="-E8 E9"/>
    </vehicle>
    <vehicle id="yuanlinlu_east.2" type="vt_car" depart="6.00" departLane="best">
        <route edges="E16 -E10 -E1 E3"/>
    </vehicle>
    <vehicle id="yuanlinlu_east_T1.2" type="vt_car" depart="6.00" departLane="best">
        <route edges="E0 E1 E10 E11"/>
    </vehicle>
    <vehicle id="yuanlinlu_west.2" type="vt_car" depart="8.41" departLane="best">
        <route edges="-E19 -E18 -E17 -E16"/>
    </vehicle>
    <vehicle id="yuanlinlu_west_T1.2" type="vt_car" depart="8.41" departLane="best">
        <route edges="-E8 -E5 -E2 E3"/>
    </vehicle>
    <vehicle id="yuanlinlu_east.3" type="vt_car" depart="9.00" departLane="best">
        <route edges="E16 E17 E18 E19"/>
    </vehicle>
    <vType id="vt_truck" minGap="2.50" maxSpeed="11.00" vClass="truck" color="red" laneChangeModel="LC2013" accel="2.6" decel="4.5" sigma="0.5"/>
    <vehicle id="yuanlinlu_east_T1.3" type="vt_truck" depart="9.00" departLane="best">
        <route edges="E0 E3"/>
    </vehicle>
    <vehicle id="yuanlinlu_east.4" type="vt_car" depart="12.00" departLane="best">
        <route edges="E16 E17 E18 E19"/>
    </vehicle>
    <vehicle id="yuanlinlu_east_T1.4" type="vt_car" depart="12.00" departLane="best">
        <route edges="E0 E1 E10 E17 E18 E19"/>
    </vehicle>
    <vehicle id="yuanlinlu_west.3" type="vt_car" depart="12.62" departLane="best">
        <route edges="-E19 -E18 -E12 -E4 -E2 -E0"/>
    </vehicle>
    <vehicle id="yuanlinlu_west_T1.3" type="vt_car" depart="12.62" departLane="best">
        <route edges="-E8 -E5 E4 E12 -E17 -E10 -E1 E3"/>
    </vehicle>
    <vehicle id="fukanglu_north_T1.1" type="vt_car" depart="15.00" departLane="best">
        <route edges="-E6 E4 E12 E18 E19"/>
    </vehicle>
    <vehicle id="yuanlinlu_east.5" type="vt_car" depart="15.00" departLane="best">
        <route edges="E16 E11"/>
    </vehicle>
    <vehicle id="yuanlinlu_east_T1.5" type="vt_car" depart="15.00" departLane="best">
        <route edges="E0 E2 E6"/>
    </vehicle>
    <vehicle id="yuanlinlu_west.4" type="vt_car" depart="16.82" departLane="best">
        <route edges="-E19 -E18 -E17 -E16"/>
    </vehicle>
    <vehicle id="yuanlinlu_west_T1.4" type="vt_car" depart="16.82" departLane="best">
        <route edges="-E8 -E5 -E2 -E0"/>
    </vehicle>
    <vehicle id="yuanlinlu_east.6" type="vt_car" depart="18.00" departLane="best">
        <route edges="E16 E17 E18 E19"/>
    </vehicle>
    <vehicle id="yuanlinlu_east_T1.6" type="vt_truck" depart="18.00" departLane="best">
        <route edges="E0 E1 E10 -E16"/>
    </vehicle>
    <vehicle id="feitianlu_north_T1.1" type="vt_car" depart="20.00" departLane="best">
        <route edges="-E9 E8"/>
    </vehicle>
    <vehicle id="xingminlu_south_T1.1" type="vt_car" depart="20.46" departLane="best">
        <route edges="-E11 E17 -E12 -E4 -E2 -E0"/>
    </vehicle>
    <vehicle id="yuanlinlu_east.7" type="vt_car" depart="21.00" departLane="best">
        <route edges="E16 E11"/>
    </vehicle>
    <vehicle id="yuanlinlu_east_T1.7" type="vt_car" depart="21.00" departLane="best">
        <route edges="E0 E2 E4 E12 -E17 -E16"/>
    </vehicle>
    <vehicle id="yuanlinlu_west.5" type="vt_car" depart="21.03" departLane="best">
        <route edges="-E19 -E18 E13"/>
    </vehicle>
    <vehicle id="yuanlinlu_west_T1.5" type="vt_car" depart="21.03" departLane="best">
        <route edges="-E8 E9"/>
    </vehicle>
    <vehicle id="feitianlu_south_T1.1" type="vt_car" depart="22.50" departLane="best">
        <route edges="-E15 E19"/>
    </vehicle>
    <vehicle id="fukanglu_south_T1.1" type="vt_car" depart="22.50" departLane="best">
        <route edges="-E13 -E12 -E4 E5 E9"/>
    </vehicle>
    <vehicle id="yuanlinlu_east.8" type="vt_car" depart="24.00" departLane="best">
        <route edges="E16 E17 E18 E19"/>
    </vehicle>
    <vehicle id="yuanlinlu_east_T1.8" type="vt_car" depart="24.00" departLane="best">
        <route edges="E0 E3"/>
    </vehicle>
    <vehicle id="yuanlinlu_west.6" type="vt_car" depart="25.24" departLane="best">
        <route edges="-E19 -E18 E13"/>
    </vehicle>
    <vehicle id="yuanlinlu_west_T1.6" type="vt_car" depart="25.24" departLane="best">
        <route edges="-E8 -E5 -E2 -E0"/>
    </vehicle>
    <vehicle id="yuanlinlu_east.9" type="vt_car" depart="27.00" departLane="best">
        <route edges="E16 E17 E18 E19"/>
    </vehicle>
    <vehicle id="yuanlinlu_east_T1.9" type="vt_car" depart="27.00" departLane="best">
        <route edges="E0 E2 E5 E8"/>
    </vehicle>
    <vehicle id="yuanlinlu_west.7" type="vt_car" depart="29.44" departLane="best">
        <route edges="-E19 -E18 -E17 -E16"/>
    </vehicle>
    <vehicle id="yuanlinlu_west_T1.7" type="vt_car" depart="29.44" departLane="best">
        <route edges="-E8 -E5 E4 E12 E13"/>
    </vehicle>
    <vehicle id="fukanglu_north_T1.2" type="vt_car" depart="30.00" departLane="best">
        <route edges="-E6 -E2 E3"/>
    </vehicle>
    <vehicle id="yuanlinlu_east.10" type="vt_car" depart="30.00" departLane="best">
        <route edges="E16 E17 E13"/>
    </vehicle>
    <vehicle id="yuanlinlu_east_T1.10" type="vt_car" depart="30.00" departLane="best">
        <route edges="E0 E2 E5 E8"/>
    </vehicle>
    <vehicle id="yuanlinlu_east.11" type="vt_car" depart="33.00" departLane="best">
        <route edges="E16 -E10 -E1 E3"/>
    </vehicle>
    <vehicle id="yuanlinlu_east_T1.11" type="vt_car" depart="33.00" departLane="best">
        <route edges="E0 E2 E5 E8"/>
    </vehicle>
    <vehicle id="yuanlinlu_west.8" type="vt_car" depart="33.65" departLane="best">
        <route edges="-E19 -E18 -E17 -E16"/>
    </vehicle>
    <vehicle id="yuanlinlu_west_T1.8" type="vt_car" depart="33.65" departLane="best">
        <route edges="-E8 -E5 -E2 E1 E10 E17 E18 E19"/>
    </vehicle>
    <vehicle id="yuanlinlu_east.12" type="vt_car" depart="36.00" departLane="best">
        <route edges="E16 E11"/>
    </vehicle>
    <vehicle id="yuanlinlu_east_T1.12" type="vt_car" depart="36.00" departLane="best">
        <route edges="E0 E2 E6"/>
    </vehicle>
    <vehicle id="yuanlinlu_west.9" type="vt_car" depart="37.85" departLane="best">
        <route edges="-E19 -E14 -E7 E8"/>
    </vehicle>
    <vehicle id="yuanlinlu_west_T1.9" type="vt_car" depart="37.85" departLane="best">
        <route edges="-E8 E9"/>
    </vehicle>
    <vehicle id="yuanlinlu_east.13" type="vt_car" depart="39.00" departLane="best">
        <route edges="E16 E17 E18 E19"/>
    </vehicle>
    <vehicle id="yuanlinlu_east_T1.13" type="vt_car" depart="39.00" departLane="best">
        <route edges="E0 E3"/>
    </vehicle>
    <vehicle id="feitianlu_north_T1.2" type="vt_car" depart="40.00" departLane="best">
        <route edges="-E9 -E5 -E2 E3"/>
    </vehicle>
    <vehicle id="xingminlu_south_T1.2" type="vt_car" depart="40.91" departLane="best">
        <route edges="-E11 E17 E18 E19"/>
    </vehicle>
    <vehicle id="yuanlinlu_east.14" type="vt_car" depart="42.00" departLane="best">
        <route edges="E16 E17 E18 -E14 -E7 -E5 E6"/>
    </vehicle>
    <vehicle id="yuanlinlu_east_T1.14" type="vt_car" depart="42.00" departLane="best">
        <route edges="E0 E1 E10 E17 E18 E15"/>
    </vehicle>
    <vehicle id="yuanlinlu_west.10" type="vt_car" depart="42.06" departLane="best">
        <route edges="-E19 -E18 -E17 E11"/>
    </vehicle>
    <vehicle id="yuanlinlu_west_T1.10" type="vt_car" depart="42.06" departLane="best">
        <route edges="-E8 E9"/>
    </vehicle>
    <vehicle id="xingminlu_north_T1.1" type="vt_car" depart="42.86" departLane="best">
        <route edges="-E3 -E0"/>
    </vehicle>
    <vehicle id="feitianlu_south_T1.2" type="vt_car" depart="45.00" departLane="best">
        <route edges="-E15 -E14 -E7 -E5 E4 E12 E18 E19"/>
    </vehicle>
    <vehicle id="fukanglu_north_T1.3" type="vt_truck" depart="45.00" departLane="best">
        <route edges="-E6 -E2 E1 E10 E11"/>
    </vehicle>
    <vehicle id="fukanglu_south_T1.2" type="vt_truck" depart="45.00" departLane="best">
        <route edges="-E13 -E17 -E16"/>
    </vehicle>
    <vehicle id="yuanlinlu_east.15" type="vt_car" depart="45.00" departLane="best">
        <route edges="E16 -E10 -E1 -E0"/>
    </vehicle>
    <vehicle id="yuanlinlu_east_T1.15" type="vt_car" depart="45.00" departLane="best">
        <route edges="E0 E2 E5 E8"/>
    </vehicle>
    <vehicle id="yuanlinlu_west.11" type="vt_car" depart="46.27" departLane="best">
        <route edges="-E19 -E18 -E12 -E4 E6"/>
    </vehicle>
    <vehicle id="yuanlinlu_west_T1.11" type="vt_car" depart="46.27" departLane="best">
        <route edges="-E8 -E5 -E2 E1 E10 -E16"/>
    </vehicle>
    <vehicle id="yuanlinlu_east.16" type="vt_car" depart="48.00" departLane="best">
        <route edges="E16 -E10 -E1 -E0"/>
    </vehicle>
    <vehicle id="yuanlinlu_east_T1.16" type="vt_car" depart="48.00" departLane="best">
        <route edges="E0 E2 E5 E8"/>
    </vehicle>
    <vehicle id="yuanlinlu_west.12" type="vt_car" depart="50.47" departLane="best">
        <route edges="-E19 E15"/>
    </vehicle>
    <vehicle id="yuanlinlu_west_T1.12" type="vt_car" depart="50.47" departLane="best">
        <route edges="-E8 -E5 -E2 E1 E10 -E16"/>
    </vehicle>
    <vehicle id="yuanlinlu_east.17" type="vt_car" depart="51.00" departLane="best">
        <route edges="E16 E17 E18 E19"/>
    </vehicle>
    <vehicle id="yuanlinlu_east_T1.17" type="vt_truck" depart="51.00" departLane="best">
        <route edges="E0 E3"/>
    </vehicle>
    <vehicle id="yuanlinlu_east.18" type="vt_car" depart="54.00" departLane="best">
        <route edges="E16 -E10 -E1 E3"/>
    </vehicle>
    <vehicle id="yuanlinlu_east_T1.18" type="vt_car" depart="54.00" departLane="best">
        <route edges="E0 E2 E5 E8"/>
    </vehicle>
    <vehicle id="yuanlinlu_west.13" type="vt_truck" depart="54.68" departLane="best">
        <route edges="-E19 -E18 -E17 -E10 -E1 E2 E6"/>
    </vehicle>
    <vehicle id="yuanlinlu_west_T1.13" type="vt_car" depart="54.68" departLane="best">
        <route edges="-E8 -E5 E4 E12 E13"/>
    </vehicle>
    <vehicle id="yuanlinlu_east.19" type="vt_truck" depart="57.00" departLane="best">
        <route edges="E16 E17 E18 E19"/>
    </vehicle>
    <vehicle id="yuanlinlu_east_T1.19" type="vt_car" depart="57.00" departLane="best">
        <route edges="E0 E2 E5 E8"/>
    </vehicle>
    <vehicle id="yuanlinlu_west.14" type="vt_car" depart="58.88" departLane="best">
        <route edges="-E19 -E14 -E7 E9"/>
    </vehicle>
    <vehicle id="yuanlinlu_west_T1.14" type="vt_car" depart="58.88" departLane="best">
        <route edges="-E8 -E5 -E2 E3"/>
    </vehicle>
    <vehicle id="feitianlu_north_T1.3" type="vt_car" depart="60.00" departLane="best">
        <route edges="-E9 E7 E14 E19"/>
    </vehicle>
    <vehicle id="fukanglu_north_T1.4" type="vt_car" depart="60.00" departLane="best">
        <route edges="-E6 E4 E12 E18 E19"/>
    </vehicle>
    <vehicle id="yuanlinlu_east.20" type="vt_car" depart="60.00" departLane="best">
        <route edges="E16 E11"/>
    </vehicle>
    <vehicle id="yuanlinlu_east_T1.20" type="vt_car" depart="60.00" departLane="best">
        <route edges="E0 E2 E6"/>
    </vehicle>
    <vehicle id="xingminlu_south_T1.3" type="vt_truck" depart="61.37" departLane="best">
        <route edges="-E11 -E10 -E1 -E0"/>
    </vehicle>
    <vehicle id="yuanlinlu_east.21" type="vt_car" depart="63.00" departLane="best">
        <route edges="E16 E17 E18 E19"/>
    </vehicle>
    <vehicle id="yuanlinlu_east_T1.21" type="vt_car" depart="63.00" departLane="best">
        <route edges="E0 E2 E6"/>
    </vehicle>
    <vehicle id="yuanlinlu_west.15" type="vt_car" depart="63.09" departLane="best">
        <route edges="-E19 E15"/>
    </vehicle>
    <vehicle id="yuanlinlu_west_T1.15" type="vt_car" depart="63.09" departLane="best">
        <route edges="-E8 E9"/>
    </vehicle>
    <vehicle id="yuanlinlu_east.22" type="vt_car" depart="66.00" departLane="best">
        <route edges="E16 E17 E18 E19"/>
    </vehicle>
    <vehicle id="yuanlinlu_east_T1.22" type="vt_car" depart="66.00" departLane="best">
        <route edges="E0 E3"/>
    </vehicle>
    <vehicle id="yuanlinlu_west.16" type="vt_car" depart="67.30" departLane="best">
        <route edges="-E19 -E18 E13"/>
    </vehicle>
    <vehicle id="yuanlinlu_west_T1.16" type="vt_car" depart="67.30" departLane="best">
        <route edges="-E8 -E5 E6"/>
    </vehicle>
    <vehicle id="feitianlu_south_T1.3" type="vt_car" depart="67.50" departLane="best">
        <route edges="-E15 -E14 -E7 -E5 E6"/>
    </vehicle>
    <vehicle id="fukanglu_south_T1.3" type="vt_truck" depart="67.50" departLane="best">
        <route edges="-E13 -E12 -E4 E6"/>
    </vehicle>
    <vehicle id="yuanlinlu_east.23" type="vt_car" depart="69.00" departLane="best">
        <route edges="E16 E17 -E12 -E4 E5 E8"/>
    </vehicle>
    <vehicle id="yuanlinlu_east_T1.23" type="vt_car" depart="69.00" departLane="best">
        <route edges="E0 E2 E6"/>
    </vehicle>
    <vehicle id="yuanlinlu_west.17" type="vt_car" depart="71.50" departLane="best">
        <route edges="-E19 E15"/>
    </vehicle>
    <vehicle id="yuanlinlu_west_T1.17" type="vt_truck" depart="71.50" departLane="best">
        <route edges="-E8 -E5 -E2 E1 E10 E11"/>
    </vehicle>
    <vehicle id="yuanlinlu_east.24" type="vt_car" depart="72.00" departLane="best">
        <route edges="E16 E17 E18 E19"/>
    </vehicle>
    <vehicle id="yuanlinlu_east_T1.24" type="vt_car" depart="72.00" departLane="best">
        <route edges="E0 E2 E5 E8"/>
    </vehicle>
    <vehicle id="fukanglu_north_T1.5" type="vt_car" depart="75.00" departLane="best">
        <route edges="-E6 -E2 -E0"/>
    </vehicle>
    <vehicle id="yuanlinlu_east.25" type="vt_truck" depart="75.00" departLane="best">
        <route edges="E16 E17 E18 E15"/>
    </vehicle>
    <vehicle id="yuanlinlu_east_T1.25" type="vt_car" depart="75.00" departLane="best">
        <route edges="E0 E2 E5 E7 E14 E19"/>
    </vehicle>
    <vehicle id="yuanlinlu_west.18" type="vt_car" depart="75.71" departLane="best">
        <route edges="-E19 -E18 E13"/>
    </vehicle>
    <vehicle id="yuanlinlu_west_T1.18" type="vt_car" depart="75.71" departLane="best">
        <route edges="-E8 E9"/>
    </vehicle>
    <vehicle id="yuanlinlu_east.26" type="vt_car" depart="78.00" departLane="best">
        <route edges="E16 E11"/>
    </vehicle>
    <vehicle id="yuanlinlu_east_T1.26" type="vt_truck" depart="78.00" departLane="best">
        <route edges="E0 E2 E5 E7 E14 E15"/>
    </vehicle>
    <vehicle id="yuanlinlu_west.19" type="vt_car" depart="79.91" departLane="best">
        <route edges="-E19 -E18 -E17 E11"/>
    </vehicle>
    <vehicle id="yuanlinlu_west_T1.19" type="vt_car" depart="79.91" departLane="best">
        <route edges="-E8 -E5 -E2 -E0"/>
    </vehicle>
    <vehicle id="feitianlu_north_T1.4" type="vt_truck" depart="80.00" departLane="best">
        <route edges="-E9 E8"/>
    </vehicle>
    <vehicle id="yuanlinlu_east.27" type="vt_car" depart="81.00" departLane="best">
        <route edges="E16 E17 E13"/>
    </vehicle>
    <vehicle id="yuanlinlu_east_T1.27" type="vt_car" depart="81.00" departLane="best">
        <route edges="E0 E2 E5 E7 E14 -E18 -E17 -E10 -E1 E3"/>
    </vehicle>
    <vehicle id="xingminlu_south_T1.4" type="vt_car" depart="81.82" departLane="best">
        <route edges="-E11 -E16"/>
    </vehicle>
    <vehicle id="yuanlinlu_east.28" type="vt_car" depart="84.00" departLane="best">
        <route edges="E16 E17 -E12 -E4 E6"/>
    </vehicle>
    <vehicle id="yuanlinlu_east_T1.28" type="vt_truck" depart="84.00" departLane="best">
        <route edges="E0 E3"/>
    </vehicle>
    <vehicle id="yuanlinlu_west.20" type="vt_car" depart="84.12" departLane="best">
        <route edges="-E19 -E18 E13"/>
    </vehicle>
    <vehicle id="yuanlinlu_west_T1.20" type="vt_car" depart="84.12" departLane="best">
        <route edges="-E8 -E5 -E2 E1 E10 E17 E13"/>
    </vehicle>
    <vehicle id="xingminlu_north_T1.2" type="vt_car" depart="85.71" departLane="best">
        <route edges="-E3 -E0"/>
    </vehicle>
    <vehicle id="yuanlinlu_east.29" type="vt_car" depart="87.00" departLane="best">
        <route edges="E16 E17 -E12 -E4 E5 E8"/>
    </vehicle>
    <vehicle id="yuanlinlu_east_T1.29" type="vt_car" depart="87.00" departLane="best">
        <route edges="E0 E1 E10 -E16"/>
    </vehicle>
    <vehicle id="yuanlinlu_west.21" type="vt_truck" depart="88.33" departLane="best">
        <route edges="-E19 -E18 -E17 -E16"/>
    </vehicle>
    <vehicle id="yuanlinlu_west_T1.21" type="vt_car" depart="88.33" departLane="best">
        <route edges="-E8 -E5 E4 E12 E18 E19"/>
    </vehicle>
    <vehicle id="feitianlu_south_T1.4" type="vt_truck" depart="90.00" departLane="best">
        <route edges="-E15 E19"/>
    </vehicle>
    <vehicle id="fukanglu_north_T1.6" type="vt_car" depart="90.00" departLane="best">
        <route edges="-E6 E4 E12 -E17 -E16"/>
    </vehicle>
    <vehicle id="fukanglu_south_T1.4" type="vt_car" depart="90.00" departLane="best">
        <route edges="-E13 -E12 -E4 E6"/>
    </vehicle>
    <vehicle id="yuanlinlu_east.30" type="vt_car" depart="90.00" departLane="best">
        <route edges="E16 E17 E18 E19"/>
    </vehicle>
    <vehicle id="yuanlinlu_east_T1.30" type="vt_car" depart="90.00" departLane="best">
        <route edges="E0 E3"/>
    </vehicle>
    <vehicle id="yuanlinlu_west.22" type="vt_car" depart="92.53" departLane="best">
        <route edges="-E19 -E18 -E12 -E4 E5 E8"/>
    </vehicle>
    <vehicle id="yuanlinlu_west_T1.22" type="vt_car" depart="92.53" departLane="best">
        <route edges="-E8 -E5 -E2 -E0"/>
    </vehicle>
    <vehicle id="yuanlinlu_east.31" type="vt_car" depart="93.00" departLane="best">
        <route edges="E16 E17 E18 E19"/>
    </vehicle>
    <vehicle id="yuanlinlu_east_T1.31" type="vt_car" depart="93.00" departLane="best">
        <route edges="E0 E1 E10 E11"/>
    </vehicle>
    <vehicle id="yuanlinlu_east.32" type="vt_truck" depart="96.00" departLane="best">
        <route edges="E16 E17 E18 E19"/>
    </vehicle>
    <vehicle id="yuanlinlu_east_T1.32" type="vt_car" depart="96.00" departLane="best">
        <route edges="E0 E3"/>
    </vehicle>
    <vehicle id="yuanlinlu_west.23" type="vt_car" depart="96.74" departLane="best">
        <route edges="-E19 -E14 -E7 E9"/>
    </vehicle>
    <vehicle id="yuanlinlu_west_T1.23" type="vt_car" depart="96.74" departLane="best">
        <route edges="-E8 -E5 -E2 E3"/>
    </vehicle>
    <vehicle id="yuanlinlu_east.33" type="vt_car" depart="99.00" departLane="best">
        <route edges="E16 E11"/>
    </vehicle>
    <vehicle id="yuanlinlu_east_T1.33" type="vt_car" depart="99.00" departLane="best">
        <route edges="E0 E1 E10 E17 E18 E19"/>
    </vehicle>
    <vehicle id="feitianlu_north_T1.5" type="vt_car" depart="100.00" departLane="best">
        <route edges="-E9 -E5 -E2 -E0"/>
    </vehicle>
    <vehicle id="yuanlinlu_west.24" type="vt_car" depart="100.94" departLane="best">
        <route edges="-E19 -E18 -E17 -E16"/>
    </vehicle>
    <vehicle id="yuanlinlu_west_T1.24" type="vt_car" depart="100.94" departLane="best">
        <route edges="-E8 -E5 E6"/>
    </vehicle>
    <vehicle id="yuanlinlu_east.34" type="vt_car" depart="102.00" departLane="best">
        <route edges="E16 E17 -E12 -E4 E6"/>
    </vehicle>
    <vehicle id="yuanlinlu_east_T1.34" type="vt_car" depart="102.00" departLane="best">
        <route edges="E0 E2 E5 E7 E14 -E18 -E17 E11"/>
    </vehicle>
    <vehicle id="xingminlu_south_T1.5" type="vt_car" depart="102.28" departLane="best">
        <route edges="-E11 E17 E18 E15"/>
    </vehicle>
    <vehicle id="fukanglu_north_T1.7" type="vt_car" depart="105.00" departLane="best">
        <route edges="-E6 E5 E8"/>
    </vehicle>
    <vehicle id="yuanlinlu_east.35" type="vt_car" depart="105.00" departLane="best">
        <route edges="E16 E17 E13"/>
    </vehicle>
    <vehicle id="yuanlinlu_east_T1.35" type="vt_car" depart="105.00" departLane="best">
        <route edges="E0 E2 E5 E8"/>
    </vehicle>
    <vehicle id="yuanlinlu_west.25" type="vt_car" depart="105.15" departLane="best">
        <route edges="-E19 -E18 E13"/>
    </vehicle>
    <vehicle id="yuanlinlu_west_T1.25" type="vt_car" depart="105.15" departLane="best">
        <route edges="-E8 -E5 E4 E12 -E17 E11"/>
    </vehicle>
    <vehicle id="yuanlinlu_east.36" type="vt_car" depart="108.00" departLane="best">
        <route edges="E16 E17 E18 E15"/>
    </vehicle>
    <vehicle id="yuanlinlu_east_T1.36" type="vt_car" depart="108.00" departLane="best">
        <route edges="E0 E2 E5 E8"/>
    </vehicle>
    <vehicle id="yuanlinlu_west.26" type="vt_car" depart="109.36" departLane="best">
        <route edges="-E19 -E18 -E17 E11"/>
    </vehicle>
    <vehicle id="yuanlinlu_west_T1.26" type="vt_car" depart="109.36" departLane="best">
        <route edges="-E8 -E5 -E2 E1 E10 E17 -E12 -E4 E5 E8"/>
    </vehicle>
    <vehicle id="yuanlinlu_east.37" type="vt_car" depart="111.00" departLane="best">
        <route edges="E16 E17 E18 E19"/>
    </vehicle>
    <vehicle id="yuanlinlu_east_T1.37" type="vt_car" depart="111.00" departLane="best">
        <route edges="E0 E1 E10 -E16"/>
    </vehicle>
    <vehicle id="feitianlu_south_T1.5" type="vt_car" depart="112.50" departLane="best">
        <route edges="-E15 -E14 -E7 E8"/>
    </vehicle>
    <vehicle id="fukanglu_south_T1.5" type="vt_car" depart="112.50" departLane="best">
        <route edges="-E13 -E17 E11"/>
    </vehicle>
    <vehicle id="yuanlinlu_west.27" type="vt_car" depart="113.56" departLane="best">
        <route edges="-E19 E15"/>
    </vehicle>
    <vehicle id="yuanlinlu_west_T1.27" type="vt_car" depart="113.56" departLane="best">
        <route edges="-E8 -E5 -E2 -E0"/>
    </vehicle>
    <vehicle id="yuanlinlu_east.38" type="vt_car" depart="114.00" departLane="best">
        <route edges="E16 E17 E13"/>
    </vehicle>
    <vehicle id="yuanlinlu_east_T1.38" type="vt_car" depart="114.00" departLane="best">
        <route edges="E0 E1 E10 E17 E18 E19"/>
    </vehicle>
    <vehicle id="yuanlinlu_east.39" type="vt_car" depart="117.00" departLane="best">
        <route edges="E16 E11"/>
    </vehicle>
    <vehicle id="yuanlinlu_east_T1.39" type="vt_car" depart="117.00" departLane="best">
        <route edges="E0 E2 E5 E8"/>
    </vehicle>
    <vehicle id="yuanlinlu_west.28" type="vt_car" depart="117.77" departLane="best">
        <route edges="-E19 -E18 -E12 -E4 -E2 -E0"/>
    </vehicle>
    <vehicle id="yuanlinlu_west_T1.28" type="vt_car" depart="117.77" departLane="best">
        <route edges="-E8 E9"/>
    </vehicle>
    <vehicle id="feitianlu_north_T1.6" type="vt_car" depart="120.00" departLane="best">
        <route edges="-E9 -E5 -E2 E1 E10 -E16"/>
    </vehicle>
    <vehicle id="fukanglu_north_T1.8" type="vt_car" depart="120.00" departLane="best">
        <route edges="-E6 -E2 E1 E10 E17 E18 E19"/>
    </vehicle>
    <vehicle id="yuanlinlu_east.40" type="vt_car" depart="120.00" departLane="best">
        <route edges="E16 E17 -E12 -E4 E6"/>
    </vehicle>
    <vehicle id="yuanlinlu_east_T1.40" type="vt_car" depart="120.00" departLane="best">
        <route edges="E0 E2 E5 E8"/>
    </vehicle>
    <vehicle id="yuanlinlu_west.29" type="vt_car" depart="121.97" departLane="best">
        <route edges="-E19 -E18 -E12 -E4 E6"/>
    </vehicle>
    <vehicle id="yuanlinlu_west_T1.29" type="vt_car" depart="121.97" departLane="best">
        <route edges="-E8 -E5 -E2 E3"/>
    </vehicle>
    <vehicle id="xingminlu_south_T1.6" type="vt_truck" depart="122.73" departLane="best">
        <route edges="-E11 -E16"/>
    </vehicle>
    <vehicle id="yuanlinlu_east.41" type="vt_car" depart="123.00" departLane="best">
        <route edges="E16 E17 E18 E19"/>
    </vehicle>
    <vehicle id="yuanlinlu_east_T1.41" type="vt_car" depart="123.00" departLane="best">
        <route edges="E0 E2 E5 E8"/>
    </vehicle>
    <vehicle id="yuanlinlu_east.42" type="vt_car" depart="126.00" departLane="best">
        <route edges="E16 E17 -E12 -E4 E5 E8"/>
    </vehicle>
    <vehicle id="yuanlinlu_east_T1.42" type="vt_car" depart="126.00" departLane="best">
        <route edges="E0 E2 E5 E8"/>
    </vehicle>
    <vehicle id="yuanlinlu_west.30" type="vt_car" depart="126.18" departLane="best">
        <route edges="-E19 E15"/>
    </vehicle>
    <vehicle id="yuanlinlu_west_T1.30" type="vt_car" depart="126.18" departLane="best">
        <route edges="-E8 -E5 -E2 -E0"/>
    </vehicle>
    <vehicle id="xingminlu_north_T1.3" type="vt_car" depart="128.57" departLane="best">
        <route edges="-E3 E2 E5 E7 E14 E19"/>
    </vehicle>
    <vehicle id="yuanlinlu_east.43" type="vt_car" depart="129.00" departLane="best">
        <route edges="E16 E17 -E12 -E4 E6"/>
    </vehicle>
    <vehicle id="yuanlinlu_east_T1.43" type="vt_car" depart="129.00" departLane="best">
        <route edges="E0 E2 E5 E8"/>
    </vehicle>
    <vehicle id="yuanlinlu_west.31" type="vt_car" depart="130.39" departLane="best">
        <route edges="-E19 -E14 -E7 E8"/>
    </vehicle>
    <vehicle id="yuanlinlu_west_T1.31" type="vt_car" depart="130.39" departLane="best">
        <route edges="-E8 E9"/>
    </vehicle>
    <vehicle id="yuanlinlu_east.44" type="vt_car" depart="132.00" departLane="best">
        <route edges="E16 -E10 -E1 E3"/>
    </vehicle>
    <vehicle id="yuanlinlu_east_T1.44" type="vt_car" depart="132.00" departLane="best">
        <route edges="E0 E2 E5 E7 E14 E19"/>
    </vehicle>
    <vehicle id="yuanlinlu_west.32" type="vt_car" depart="134.59" departLane="best">
        <route edges="-E19 -E18 -E17 -E10 -E1 E3"/>
    </vehicle>